#	Created by:	Discovery Studio
#	Creation time:	2018-10-05T09:00:39Z

@<TRIPOS>MOLECULE
CHEMBL94431
   36    38     1 0 0
PROTEIN
USER_CHARGES


@<TRIPOS>ATOM
      1 C1           18.092331   -0.347170   53.064997 C.3      1 UNK        0.2800
      2 O2           19.106819   -0.755958   53.808507 O.3      1 UNK       -0.3625
      3 C3           20.287762   -0.230734   53.748529 C.2      1 UNK        0.0825
      4 C4           20.957507   -0.929497   54.632989 C.2      1 UNK       -0.1500
      5 C5           22.229671   -0.757556   54.891419 C.ar     1 UNK        0.3100
      6 N6           22.715107   -1.531113   55.744633 N.ar     1 UNK       -0.6200
      7 C7           23.992493   -1.458675   56.034900 C.ar     1 UNK        0.4700
      8 N8           24.759822   -0.624607   55.428503 N.ar     1 UNK       -0.6200
      9 C9           24.322109    0.256428   54.457288 C.ar     1 UNK        0.4100
     10 N10          25.465589    1.088206   53.921779 N.pl3    1 UNK       -0.6000
     11 C11          26.824688    0.733849   53.937414 C.ar     1 UNK        0.1000
     12 C12          27.205836   -0.430358   53.390365 C.ar     1 UNK       -0.1500
     13 C13          28.620189   -0.814114   53.383191 C.ar     1 UNK       -0.1500
     14 C14          29.518538    0.001702   53.923424 C.ar     1 UNK       -0.1500
     15 C15          29.084412    1.267605   54.491451 C.ar     1 UNK        0.1900
     16 F16          29.926714    2.093344   55.037695 F        1 UNK       -0.1900
     17 C17          27.825312    1.614158   54.478962 C.ar     1 UNK       -0.1500
     18 C18          22.996083    0.234201   54.167843 C.ar     1 UNK        0.0000
     19 C19          22.252173    1.131623   53.178804 C.2      1 UNK       -0.1500
     20 C20          20.940752    0.957896   52.895006 C.2      1 UNK        0.0825
     21 O21          20.379110    1.964092   51.775279 O.3      1 UNK       -0.3625
     22 C22          21.073173    2.959346   50.946391 C.3      1 UNK        0.2800
     23 H1           17.233983   -1.013900   53.229214 H        1 UNK        0.0000
     24 H2           18.377237   -0.381246   52.007620 H        1 UNK        0.0000
     25 H3           17.815371    0.673443   53.354198 H        1 UNK        0.0000
     26 H4           20.444128   -1.701497   55.171999 H        1 UNK        0.1500
     27 H5           24.404884   -2.111755   56.788785 H        1 UNK        0.1500
     28 H6           25.251770    2.041448   53.651944 H        1 UNK        0.4000
     29 H7           26.488486   -1.088745   52.963212 H        1 UNK        0.1500
     30 H8           28.927653   -1.744298   52.951163 H        1 UNK        0.1500
     31 H9           30.536586   -0.261090   53.932108 H        1 UNK        0.1500
     32 H10          27.555223    2.557295   54.891646 H        1 UNK        0.1500
     33 H11          22.788616    1.888368   52.685365 H        1 UNK        0.1500
     34 H12          21.833381    2.454663   50.333834 H        1 UNK        0.0000
     35 H13          21.561882    3.701438   51.591447 H        1 UNK        0.0000
     36 H14          20.349085    3.458289   50.286352 H        1 UNK        0.0000
@<TRIPOS>BOND
     1    1    2 1
     2    2    3 1
     3    3    4 2
     4    4    5 1
     5    5    6 ar
     6    6    7 ar
     7    7    8 ar
     8    8    9 ar
     9    9   10 1
    10   10   11 1
    11   11   12 ar
    12   12   13 ar
    13   13   14 ar
    14   14   15 ar
    15   15   16 1
    16   15   17 ar
    17   11   17 ar
    18    9   18 ar
    19    5   18 ar
    20   18   19 1
    21   19   20 2
    22    3   20 1
    23   20   21 1
    24   21   22 1
    25    1   23 1
    26    1   24 1
    27    1   25 1
    28    4   26 1
    29    7   27 1
    30   10   28 1
    31   12   29 1
    32   13   30 1
    33   14   31 1
    34   17   32 1
    35   19   33 1
    36   22   34 1
    37   22   35 1
    38   22   36 1
@<TRIPOS>SUBSTRUCTURE
1 UNK 1 RESIDUE 1 _ UNK
@<SCITEGIC>MOL_PROPERTY
TRIPOS_COMMENT
SciTegic.value.StringValue
> <Gold.Version>
5.3.0
> <Gold.Id.Protein>
1M17_traj_1ns_WTavg_model_1|1M17_traj_1ns_WTavg_5Awater_forGold_Pro|mol2
> <Gold.Protein.ActiveResidues>
LEU718  ALA743  CYS775  THR790  GLN791  LEU792  MET793  PRO794  GLY796  LEU844
THR854
> <Gold.Score>
Fitness  S(hb_ext) S(vdw_ext)  S(hb_int)    S(int)      intcor
55.58       1.42      40.71       0.00      -1.82      -1.70
> <Gold.Goldscore.Fitness>
55.5764
> <Gold.Goldscore.Internal.Vdw>
1.8005
> <Gold.Goldscore.Internal.Torsion>
-5.3220
> <Gold.Goldscore.External.Vdw>
40.7057
> <Gold.Goldscore.Internal.HBond>
0.0000
> <Gold.Goldscore.External.HBond>
1.4235
> <Gold.Goldscore.Internal.Correction>
-1.7040
> <Gold.Goldscore.Reference.RMSD>
7.3000
> <Gold.Goldscore.Hbonds>
donor molecule, donor type, donor heavy atom, donor atom, acceptor molecule, acceptor atom, score
P1  H  1548  1549       L1     6  0.71
> <Gold.Goldscore.Internal.Vdw.Weighted>
1.8005
> <Gold.Goldscore.Internal.Torsion.Weighted>
-5.3220
> <Gold.Goldscore.External.Vdw.Weighted>
55.9704
> <Gold.Goldscore.Internal.HBond.Weighted>
0.0000
> <Gold.Goldscore.External.HBond.Weighted>
1.4235
> <Gold.Goldscore.Internal.Correction.Weighted>
-1.7040
> <Gold.Reference.RMSD>
7.3000

@<SCITEGIC>MOL_PROPERTY
REMARK99
SciTegic.value.StringValue
REMARK  99  MacroMolecule created from Mol2 file
REMARK  99  CHEMBL94431|CHEMBL94431|mol2|1|dock3
REMARK  99  PROTEIN
REMARK  99  USER_CHARGES
REMARK  99  
REMARK  99  

@<SCITEGIC>ATOM_PROPERTY
Formal Charge
SciTegic.value.StringValue
1 0
2 0
3 0
4 0
5 0
6 0
7 0
8 0
9 0
10 0
11 0
12 0
13 0
14 0
15 0
16 0
17 0
18 0
19 0
20 0
21 0
22 0
23 0
24 0
25 0
26 0
27 0
28 0
29 0
30 0
31 0
32 0
33 0
34 0
35 0
36 0

@<SCITEGIC>ATOM_PROPERTY
pdb_tempFactor
SciTegic.value.DoubleValue
1 0.00
2 0.00
3 0.00
4 0.00
5 0.00
6 0.00
7 0.00
8 0.00
9 0.00
10 0.00
11 0.00
12 0.00
13 0.00
14 0.00
15 0.00
16 0.00
17 0.00
18 0.00
19 0.00
20 0.00
21 0.00
22 0.00
23 0.00
24 0.00
25 0.00
26 0.00
27 0.00
28 0.00
29 0.00
30 0.00
31 0.00
32 0.00
33 0.00
34 0.00
35 0.00
36 0.00

@<SCITEGIC>ATOM_PROPERTY
pdb_occupancy
SciTegic.value.DoubleValue
1 1.00
2 1.00
3 1.00
4 1.00
5 1.00
6 1.00
7 1.00
8 1.00
9 1.00
10 1.00
11 1.00
12 1.00
13 1.00
14 1.00
15 1.00
16 1.00
17 1.00
18 1.00
19 1.00
20 1.00
21 1.00
22 1.00
23 1.00
24 1.00
25 1.00
26 1.00
27 1.00
28 1.00
29 1.00
30 1.00
31 1.00
32 1.00
33 1.00
34 1.00
35 1.00
36 1.00

