#	Created by:	Discovery Studio
#	Creation time:	2018-10-05T11:41:00Z

@<TRIPOS>MOLECULE
CHEMBL328955
   30    32     1 0 0
PROTEIN
USER_CHARGES


@<TRIPOS>ATOM
      1 N1           19.331879    0.509144   53.485453 N.pl3    1 UNK       -0.9000
      2 C2           20.518032    0.399589   53.718174 C.ar     1 UNK        0.1000
      3 C3           21.398741    1.111708   53.013515 C.ar     1 UNK       -0.1500
      4 C4           22.743881    0.973625   53.292725 C.ar     1 UNK       -0.1500
      5 C5           23.097608    0.141195   54.246378 C.ar     1 UNK        0.0000
      6 C6           24.394672   -0.000720   54.525231 C.2      1 UNK        0.4100
      7 N7           25.294465    0.791461   53.733921 N.pl3    1 UNK       -0.6000
      8 C8           26.717209    0.655520   53.868337 C.ar     1 UNK        0.1000
      9 C9           27.489779    1.651167   54.320461 C.ar     1 UNK       -0.1500
     10 C10          28.949570    1.450674   54.436767 C.ar     1 UNK       -0.1500
     11 C11          29.490309    0.282569   54.091926 C.ar     1 UNK       -0.1500
     12 C12          28.646613   -0.781256   53.606527 C.ar     1 UNK        0.1770
     13 Cl13         29.227355   -2.311405   53.138437 Cl       1 UNK       -0.1770
     14 C14          27.350389   -0.601908   53.503752 C.ar     1 UNK       -0.1500
     15 N15          24.724639   -0.814543   55.456168 N.2      1 UNK       -0.6200
     16 C16          23.671059   -1.557012   56.178106 C.2      1 UNK        0.4700
     17 N17          22.460512   -1.404540   55.895618 N.2      1 UNK       -0.6200
     18 C18          22.136088   -0.602107   54.977845 C.ar     1 UNK        0.3100
     19 C19          20.885426   -0.474729   54.719431 C.ar     1 UNK       -0.1500
     20 H1           19.029509    1.108767   52.794045 H        1 UNK        0.4000
     21 H2           18.551026   -0.021480   53.998824 H        1 UNK        0.4000
     22 H3           21.099901    1.776898   52.249844 H        1 UNK        0.1500
     23 H4           23.463201    1.523788   52.752015 H        1 UNK        0.1500
     24 H5           24.870757    1.466250   53.060944 H        1 UNK        0.4000
     25 H6           27.071604    2.578415   54.595624 H        1 UNK        0.1500
     26 H7           29.573145    2.238971   54.796274 H        1 UNK        0.1500
     27 H8           30.508396    0.136778   54.170941 H        1 UNK        0.1500
     28 H9           26.758214   -1.409440   53.141417 H        1 UNK        0.1500
     29 H10          23.944894   -2.261241   56.982413 H        1 UNK        0.1500
     30 H11          20.174600   -1.032999   55.269876 H        1 UNK        0.1500
@<TRIPOS>BOND
     1    1    2 1
     2    2    3 ar
     3    3    4 ar
     4    4    5 ar
     5    5    6 1
     6    6    7 1
     7    7    8 1
     8    8    9 ar
     9    9   10 ar
    10   10   11 ar
    11   11   12 ar
    12   12   13 1
    13   12   14 ar
    14    8   14 ar
    15    6   15 2
    16   15   16 1
    17   16   17 2
    18   17   18 1
    19    5   18 ar
    20   18   19 ar
    21    2   19 ar
    22    1   20 1
    23    1   21 1
    24    3   22 1
    25    4   23 1
    26    7   24 1
    27    9   25 1
    28   10   26 1
    29   11   27 1
    30   14   28 1
    31   16   29 1
    32   19   30 1
@<TRIPOS>SUBSTRUCTURE
1 UNK 1 RESIDUE 1 _ UNK
@<SCITEGIC>MOL_PROPERTY
TRIPOS_COMMENT
SciTegic.value.StringValue
> <Gold.Version>
5.3.0
> <Gold.Id.Protein>
1M17_traj_1ns_WTavg_model_1|1M17_traj_1ns_WTavg_5Awater_forGold_Pro|mol2
> <Gold.Protein.ActiveResidues>
LEU718  ALA743  CYS775  THR790  GLN791  LEU792  MET793  PRO794  GLY796  LEU844
THR854
> <Gold.Score>
Fitness  S(hb_ext) S(vdw_ext)  S(hb_int)    S(int)      intcor
51.12       1.85      37.35       0.00      -2.08     -30.32
> <Gold.Goldscore.Fitness>
51.1234
> <Gold.Goldscore.Internal.Vdw>
-26.8543
> <Gold.Goldscore.Internal.Torsion>
-5.5474
> <Gold.Goldscore.External.Vdw>
37.3488
> <Gold.Goldscore.Internal.HBond>
0.0000
> <Gold.Goldscore.External.HBond>
1.8517
> <Gold.Goldscore.Internal.Correction>
-30.3189
> <Gold.Goldscore.Reference.RMSD>
6.5616
> <Gold.Goldscore.Hbonds>
donor molecule, donor type, donor heavy atom, donor atom, acceptor molecule, acceptor atom, score
P1  H  1548  1549       L1    17  0.93
> <Gold.Goldscore.Internal.Vdw.Weighted>
-26.8543
> <Gold.Goldscore.Internal.Torsion.Weighted>
-5.5474
> <Gold.Goldscore.External.Vdw.Weighted>
51.3545
> <Gold.Goldscore.Internal.HBond.Weighted>
0.0000
> <Gold.Goldscore.External.HBond.Weighted>
1.8517
> <Gold.Goldscore.Internal.Correction.Weighted>
-30.3189
> <Gold.Reference.RMSD>
6.5616

@<SCITEGIC>MOL_PROPERTY
REMARK99
SciTegic.value.StringValue
REMARK  99  MacroMolecule created from Mol2 file
REMARK  99  CHEMBL328955|CHEMBL328955|mol2|1|dock3
REMARK  99  PROTEIN
REMARK  99  USER_CHARGES
REMARK  99  
REMARK  99  

@<SCITEGIC>ATOM_PROPERTY
Formal Charge
SciTegic.value.StringValue
1 0
2 0
3 0
4 0
5 0
6 0
7 0
8 0
9 0
10 0
11 0
12 0
13 0
14 0
15 0
16 0
17 0
18 0
19 0
20 0
21 0
22 0
23 0
24 0
25 0
26 0
27 0
28 0
29 0
30 0

@<SCITEGIC>ATOM_PROPERTY
pdb_tempFactor
SciTegic.value.DoubleValue
1 0.00
2 0.00
3 0.00
4 0.00
5 0.00
6 0.00
7 0.00
8 0.00
9 0.00
10 0.00
11 0.00
12 0.00
13 0.00
14 0.00
15 0.00
16 0.00
17 0.00
18 0.00
19 0.00
20 0.00
21 0.00
22 0.00
23 0.00
24 0.00
25 0.00
26 0.00
27 0.00
28 0.00
29 0.00
30 0.00

@<SCITEGIC>ATOM_PROPERTY
pdb_occupancy
SciTegic.value.DoubleValue
1 1.00
2 1.00
3 1.00
4 1.00
5 1.00
6 1.00
7 1.00
8 1.00
9 1.00
10 1.00
11 1.00
12 1.00
13 1.00
14 1.00
15 1.00
16 1.00
17 1.00
18 1.00
19 1.00
20 1.00
21 1.00
22 1.00
23 1.00
24 1.00
25 1.00
26 1.00
27 1.00
28 1.00
29 1.00
30 1.00

