#	Created by:	Discovery Studio
#	Creation time:	2018-10-05T11:40:34Z

@<TRIPOS>MOLECULE
CHEMBL333418
   30    32     1 0 0
PROTEIN
USER_CHARGES


@<TRIPOS>ATOM
      1 N1           23.833674    1.807545   52.659848 N.pl3    1 UNK       -0.9000
      2 C2           22.837442    0.991011   53.224317 C.2      1 UNK        0.1000
      3 C3           21.575887    1.027447   52.751737 C.2      1 UNK       -0.1500
      4 C4           20.523598    0.096467   53.244515 C.2      1 UNK       -0.1500
      5 C5           20.853446   -0.818005   54.154966 C.2      1 UNK       -0.1500
      6 C6           22.212728   -0.876796   54.694621 C.ar     1 UNK        0.3100
      7 N7           22.513870   -1.704370   55.585704 N.ar     1 UNK       -0.6200
      8 C8           23.799181   -1.736785   56.194964 C.ar     1 UNK        0.4700
      9 N9           24.657576   -0.846562   55.844456 N.ar     1 UNK       -0.6200
     10 C10          24.384062    0.109693   54.873420 C.ar     1 UNK        0.4100
     11 N11          25.328445    1.199419   54.530419 N.pl3    1 UNK       -0.6000
     12 C12          26.705540    0.894214   54.172843 C.ar     1 UNK        0.1000
     13 C13          27.671146    1.822150   54.214209 C.ar     1 UNK       -0.1500
     14 C14          29.063755    1.444593   53.871131 C.ar     1 UNK       -0.1500
     15 C15          29.349028    0.189773   53.526974 C.ar     1 UNK       -0.1500
     16 C16          28.316554   -0.811628   53.476081 C.ar     1 UNK        0.1110
     17 Br17         28.689955   -2.610053   52.996207 Br       1 UNK       -0.1110
     18 C18          27.074012   -0.479651   53.773171 C.ar     1 UNK       -0.1500
     19 C19          23.189743    0.069490   54.269271 C.ar     1 UNK        0.0000
     20 H1           23.583268    2.359999   51.961266 H        1 UNK        0.4000
     21 H2           24.837574    1.576256   52.781165 H        1 UNK        0.4000
     22 H3           21.333740    1.687122   51.998082 H        1 UNK        0.1500
     23 H4           19.467260    0.140814   52.836118 H        1 UNK        0.1500
     24 H5           20.142668   -1.479748   54.496144 H        1 UNK        0.1500
     25 H6           24.031010   -2.484528   56.959185 H        1 UNK        0.1500
     26 H7           25.005459    2.209499   54.726252 H        1 UNK        0.4000
     27 H8           27.455541    2.818945   54.501758 H        1 UNK        0.1500
     28 H9           29.852558    2.173890   53.905049 H        1 UNK        0.1500
     29 H10          30.309211   -0.069604   53.296650 H        1 UNK        0.1500
     30 H11          26.326600   -1.227723   53.730101 H        1 UNK        0.1500
@<TRIPOS>BOND
     1    1    2 1
     2    2    3 2
     3    3    4 1
     4    4    5 2
     5    5    6 1
     6    6    7 ar
     7    7    8 ar
     8    8    9 ar
     9    9   10 ar
    10   10   11 1
    11   11   12 1
    12   12   13 ar
    13   13   14 ar
    14   14   15 ar
    15   15   16 ar
    16   16   17 1
    17   16   18 ar
    18   12   18 ar
    19   10   19 ar
    20    2   19 1
    21    6   19 ar
    22    1   20 1
    23    1   21 1
    24    3   22 1
    25    4   23 1
    26    5   24 1
    27    8   25 1
    28   11   26 1
    29   13   27 1
    30   14   28 1
    31   15   29 1
    32   18   30 1
@<TRIPOS>SUBSTRUCTURE
1 UNK 1 RESIDUE 1 _ UNK
@<SCITEGIC>MOL_PROPERTY
TRIPOS_COMMENT
SciTegic.value.StringValue
> <Gold.Version>
5.3.0
> <Gold.Id.Protein>
1M17_traj_1ns_WTavg_model_1|1M17_traj_1ns_WTavg_5Awater_forGold_Pro|mol2
> <Gold.Protein.ActiveResidues>
LEU718  ALA743  CYS775  THR790  GLN791  LEU792  MET793  PRO794  GLY796  LEU844
THR854
> <Gold.Score>
Fitness  S(hb_ext) S(vdw_ext)  S(hb_int)    S(int)      intcor
48.69       1.30      34.76       0.00      -0.40      -7.96
> <Gold.Goldscore.Fitness>
48.6949
> <Gold.Goldscore.Internal.Vdw>
-3.5109
> <Gold.Goldscore.Internal.Torsion>
-4.8457
> <Gold.Goldscore.External.Vdw>
34.7552
> <Gold.Goldscore.Internal.HBond>
0.0000
> <Gold.Goldscore.External.HBond>
1.3050
> <Gold.Goldscore.Internal.Correction>
-7.9582
> <Gold.Goldscore.Reference.RMSD>
6.6491
> <Gold.Goldscore.Hbonds>
donor molecule, donor type, donor heavy atom, donor atom, acceptor molecule, acceptor atom, score
P1  H  1548  1549       L1     7  0.65
> <Gold.Goldscore.Internal.Vdw.Weighted>
-3.5109
> <Gold.Goldscore.Internal.Torsion.Weighted>
-4.8457
> <Gold.Goldscore.External.Vdw.Weighted>
47.7884
> <Gold.Goldscore.Internal.HBond.Weighted>
0.0000
> <Gold.Goldscore.External.HBond.Weighted>
1.3050
> <Gold.Goldscore.Internal.Correction.Weighted>
-7.9582
> <Gold.Reference.RMSD>
6.6491

@<SCITEGIC>MOL_PROPERTY
REMARK99
SciTegic.value.StringValue
REMARK  99  MacroMolecule created from Mol2 file
REMARK  99  CHEMBL333418|CHEMBL333418|mol2|1|dock1
REMARK  99  PROTEIN
REMARK  99  USER_CHARGES
REMARK  99  
REMARK  99  

@<SCITEGIC>ATOM_PROPERTY
Formal Charge
SciTegic.value.StringValue
1 0
2 0
3 0
4 0
5 0
6 0
7 0
8 0
9 0
10 0
11 0
12 0
13 0
14 0
15 0
16 0
17 0
18 0
19 0
20 0
21 0
22 0
23 0
24 0
25 0
26 0
27 0
28 0
29 0
30 0

@<SCITEGIC>ATOM_PROPERTY
pdb_tempFactor
SciTegic.value.DoubleValue
1 0.00
2 0.00
3 0.00
4 0.00
5 0.00
6 0.00
7 0.00
8 0.00
9 0.00
10 0.00
11 0.00
12 0.00
13 0.00
14 0.00
15 0.00
16 0.00
17 0.00
18 0.00
19 0.00
20 0.00
21 0.00
22 0.00
23 0.00
24 0.00
25 0.00
26 0.00
27 0.00
28 0.00
29 0.00
30 0.00

@<SCITEGIC>ATOM_PROPERTY
pdb_occupancy
SciTegic.value.DoubleValue
1 1.00
2 1.00
3 1.00
4 1.00
5 1.00
6 1.00
7 1.00
8 1.00
9 1.00
10 1.00
11 1.00
12 1.00
13 1.00
14 1.00
15 1.00
16 1.00
17 1.00
18 1.00
19 1.00
20 1.00
21 1.00
22 1.00
23 1.00
24 1.00
25 1.00
26 1.00
27 1.00
28 1.00
29 1.00
30 1.00

