#	Created by:	Discovery Studio
#	Creation time:	2018-10-05T09:12:06Z

@<TRIPOS>MOLECULE
CHEMBL555201
   37    39     1 0 0
PROTEIN
USER_CHARGES


@<TRIPOS>ATOM
      1 C1           18.010789    0.138612   53.203902 C.3      1 UNK        0.2800
      2 O2           19.047686   -0.482139   53.736132 O.3      1 UNK       -0.3625
      3 C3           20.249131    0.000202   53.723102 C.2      1 UNK        0.0825
      4 C4           20.913502   -0.869945   54.442072 C.2      1 UNK       -0.1500
      5 C5           22.197592   -0.807898   54.668556 C.ar     1 UNK        0.3100
      6 N6           22.651488   -1.738208   55.371883 N.ar     1 UNK       -0.6200
      7 C7           23.933611   -1.815395   55.649466 C.ar     1 UNK        0.4700
      8 N8           24.746459   -0.954411   55.149740 N.ar     1 UNK       -0.6200
      9 C9           24.317060    0.124701   54.303832 C.ar     1 UNK        0.4100
     10 N10          25.466063    1.008405   53.803027 N.pl3    1 UNK       -0.6000
     11 C11          27.005657    0.775229   53.927936 C.ar     1 UNK        0.1000
     12 C12          27.472465   -0.420606   53.525524 C.ar     1 UNK       -0.1500
     13 C13          28.920969   -0.779605   53.623462 C.ar     1 UNK       -0.1500
     14 C14          29.819064    0.091767   54.105957 C.ar     1 UNK        0.0825
     15 O15          31.218101   -0.243650   54.245287 O.3      1 UNK       -0.5325
     16 C16          29.372072    1.438414   54.509836 C.ar     1 UNK       -0.1500
     17 C17          28.068164    1.787554   54.435531 C.ar     1 UNK       -0.1500
     18 C18          22.989834    0.231215   54.082863 C.ar     1 UNK        0.0000
     19 C19          22.269214    1.326655   53.292671 C.2      1 UNK       -0.1500
     20 C20          20.934236    1.284919   53.057797 C.2      1 UNK        0.0825
     21 O21          20.371834    2.515080   52.179995 O.3      1 UNK       -0.3625
     22 C22          21.089907    3.640558   51.540891 C.3      1 UNK        0.2800
     23 H1           17.107281   -0.465235   53.362416 H        1 UNK        0.0000
     24 H2           18.175728    0.266267   52.126458 H        1 UNK        0.0000
     25 H3           17.881399    1.111471   53.688886 H        1 UNK        0.0000
     26 H4           20.382897   -1.697743   54.860853 H        1 UNK        0.1500
     27 H5           24.303526   -2.597628   56.271402 H        1 UNK        0.1500
     28 H6           25.172731    1.889792   53.324848 H        1 UNK        0.4000
     29 H7           26.797211   -1.151651   53.149083 H        1 UNK        0.1500
     30 H8           29.229157   -1.757870   53.314062 H        1 UNK        0.1500
     31 H9           31.384741   -1.223544   54.498472 H        1 UNK        0.4500
     32 H10          30.125768    2.151740   54.868955 H        1 UNK        0.1500
     33 H11          27.771496    2.800811   54.752051 H        1 UNK        0.1500
     34 H12          22.841054    2.141643   52.909781 H        1 UNK        0.1500
     35 H13          21.825796    3.239277   50.829131 H        1 UNK        0.0000
     36 H14          21.607664    4.233154   52.304579 H        1 UNK        0.0000
     37 H15          20.372306    4.271871   50.998243 H        1 UNK        0.0000
@<TRIPOS>BOND
     1    1    2 1
     2    2    3 1
     3    3    4 2
     4    4    5 1
     5    5    6 ar
     6    6    7 ar
     7    7    8 ar
     8    8    9 ar
     9    9   10 1
    10   10   11 1
    11   11   12 ar
    12   12   13 ar
    13   13   14 ar
    14   14   15 1
    15   14   16 ar
    16   16   17 ar
    17   11   17 ar
    18    9   18 ar
    19    5   18 ar
    20   18   19 1
    21   19   20 2
    22    3   20 1
    23   20   21 1
    24   21   22 1
    25    1   23 1
    26    1   24 1
    27    1   25 1
    28    4   26 1
    29    7   27 1
    30   10   28 1
    31   12   29 1
    32   13   30 1
    33   15   31 1
    34   16   32 1
    35   17   33 1
    36   19   34 1
    37   22   35 1
    38   22   36 1
    39   22   37 1
@<TRIPOS>SUBSTRUCTURE
1 UNK 1 RESIDUE 1 _ UNK
@<SCITEGIC>MOL_PROPERTY
TRIPOS_COMMENT
SciTegic.value.StringValue
> <Gold.Version>
5.3.0
> <Gold.Id.Protein>
1M17_traj_1ns_WTavg_model_1|1M17_traj_1ns_WTavg_5Awater_forGold_Pro|mol2
> <Gold.Protein.ActiveResidues>
LEU718  ALA743  CYS775  THR790  GLN791  LEU792  MET793  PRO794  GLY796  LEU844
THR854
> <Gold.Score>
Fitness  S(hb_ext) S(vdw_ext)  S(hb_int)    S(int)      intcor
52.12       1.89      38.62       0.00      -2.88      -0.57
> <Gold.Goldscore.Fitness>
52.1229
> <Gold.Goldscore.Internal.Vdw>
1.3740
> <Gold.Goldscore.Internal.Torsion>
-4.8261
> <Gold.Goldscore.External.Vdw>
38.6229
> <Gold.Goldscore.Internal.HBond>
0.0000
> <Gold.Goldscore.External.HBond>
1.8942
> <Gold.Goldscore.Internal.Correction>
-0.5742
> <Gold.Goldscore.Reference.RMSD>
7.3510
> <Gold.Goldscore.Hbonds>
donor molecule, donor type, donor heavy atom, donor atom, acceptor molecule, acceptor atom, score
P1  H  1548  1549       L1     6  0.95
> <Gold.Goldscore.Internal.Vdw.Weighted>
1.3740
> <Gold.Goldscore.Internal.Torsion.Weighted>
-4.8261
> <Gold.Goldscore.External.Vdw.Weighted>
53.1065
> <Gold.Goldscore.Internal.HBond.Weighted>
0.0000
> <Gold.Goldscore.External.HBond.Weighted>
1.8942
> <Gold.Goldscore.Internal.Correction.Weighted>
-0.5742
> <Gold.Reference.RMSD>
7.3510

@<SCITEGIC>MOL_PROPERTY
REMARK99
SciTegic.value.StringValue
REMARK  99  MacroMolecule created from Mol2 file
REMARK  99  CHEMBL555201|CHEMBL555201|mol2|1|dock2
REMARK  99  PROTEIN
REMARK  99  USER_CHARGES
REMARK  99  
REMARK  99  

@<SCITEGIC>ATOM_PROPERTY
Formal Charge
SciTegic.value.StringValue
1 0
2 0
3 0
4 0
5 0
6 0
7 0
8 0
9 0
10 0
11 0
12 0
13 0
14 0
15 0
16 0
17 0
18 0
19 0
20 0
21 0
22 0
23 0
24 0
25 0
26 0
27 0
28 0
29 0
30 0
31 0
32 0
33 0
34 0
35 0
36 0
37 0

@<SCITEGIC>ATOM_PROPERTY
pdb_tempFactor
SciTegic.value.DoubleValue
1 0.00
2 0.00
3 0.00
4 0.00
5 0.00
6 0.00
7 0.00
8 0.00
9 0.00
10 0.00
11 0.00
12 0.00
13 0.00
14 0.00
15 0.00
16 0.00
17 0.00
18 0.00
19 0.00
20 0.00
21 0.00
22 0.00
23 0.00
24 0.00
25 0.00
26 0.00
27 0.00
28 0.00
29 0.00
30 0.00
31 0.00
32 0.00
33 0.00
34 0.00
35 0.00
36 0.00
37 0.00

@<SCITEGIC>ATOM_PROPERTY
pdb_occupancy
SciTegic.value.DoubleValue
1 1.00
2 1.00
3 1.00
4 1.00
5 1.00
6 1.00
7 1.00
8 1.00
9 1.00
10 1.00
11 1.00
12 1.00
13 1.00
14 1.00
15 1.00
16 1.00
17 1.00
18 1.00
19 1.00
20 1.00
21 1.00
22 1.00
23 1.00
24 1.00
25 1.00
26 1.00
27 1.00
28 1.00
29 1.00
30 1.00
31 1.00
32 1.00
33 1.00
34 1.00
35 1.00
36 1.00
37 1.00

