#	Created by:	Discovery Studio
#	Creation time:	2018-10-03T21:46:04Z

@<TRIPOS>MOLECULE
CHEMBL2333985|CHEMBL2333985|mol2|1|dock3
   42    44     1 0 0
PROTEIN
USER_CHARGES


@<TRIPOS>ATOM
      1 C1           18.023149    0.274442   53.265419 C.3      1 UNK        0.2800
      2 O2           19.015298   -0.328870   53.901968 O.3      1 UNK       -0.3625
      3 C3           20.260889    0.020522   53.749341 C.2      1 UNK        0.0825
      4 C4           20.893277   -0.805120   54.551586 C.2      1 UNK       -0.1500
      5 C5           22.196095   -0.803984   54.736825 C.ar     1 UNK        0.3100
      6 N6           22.629899   -1.671607   55.529584 N.ar     1 UNK       -0.6200
      7 C7           23.924832   -1.748802   55.781341 C.ar     1 UNK        0.4700
      8 N8           24.753543   -0.927967   55.242338 N.ar     1 UNK       -0.6200
      9 C9           24.349825    0.097437   54.354602 C.ar     1 UNK        0.4100
     10 N10          25.497444    0.986382   53.801635 N.pl3    1 UNK       -0.6000
     11 C11          26.791685    0.690285   53.970426 C.ar     1 UNK        0.1000
     12 C12          27.192029   -0.567808   53.798216 C.ar     1 UNK       -0.1500
     13 C13          28.565632   -0.843862   53.854814 C.ar     1 UNK       -0.1500
     14 C14          29.415364    0.129409   54.103624 C.ar     1 UNK       -0.1435
     15 C15          29.045971    1.455387   54.366912 C.ar     1 UNK       -0.1500
     16 C16          27.774512    1.762159   54.312222 C.ar     1 UNK       -0.1500
     17 C17          30.712177   -0.177183   54.071137 C.3      1 UNK        0.8235
     18 C18          31.190184   -0.783884   55.416245 C.3      1 UNK        0.0000
     19 F19          31.436874    0.974375   53.870729 F        1 UNK       -0.3400
     20 F20          30.950552   -1.083237   53.062429 F        1 UNK       -0.3400
     21 C21          23.027234    0.156693   54.064086 C.ar     1 UNK        0.0000
     22 C22          22.354276    1.121073   53.083065 C.2      1 UNK       -0.1500
     23 C23          21.021287    1.135399   52.873905 C.2      1 UNK        0.0825
     24 O24          20.554038    2.256818   51.808668 O.3      1 UNK       -0.3625
     25 C25          21.368674    3.246924   51.081993 C.3      1 UNK        0.2800
     26 H1           17.068835   -0.169788   53.582195 H        1 UNK        0.0000
     27 H2           18.143449    0.135508   52.186203 H        1 UNK        0.0000
     28 H3           18.024562    1.342748   53.516142 H        1 UNK        0.0000
     29 H4           20.320160   -1.521015   55.095367 H        1 UNK        0.1500
     30 H5           24.291026   -2.511844   56.445729 H        1 UNK        0.1500
     31 H6           25.230257    1.910431   53.355208 H        1 UNK        0.4000
     32 H7           26.511871   -1.345880   53.552542 H        1 UNK        0.1500
     33 H8           28.940751   -1.825364   53.652286 H        1 UNK        0.1500
     34 H9           29.812776    2.194787   54.604792 H        1 UNK        0.1500
     35 H10          27.473274    2.749893   54.497989 H        1 UNK        0.1500
     36 H11          31.274827    0.019280   56.161639 H        1 UNK        0.0000
     37 H12          32.172994   -1.254538   55.272674 H        1 UNK        0.0000
     38 H13          30.474631   -1.533763   55.778966 H        1 UNK        0.0000
     39 H14          22.963923    1.802868   52.556661 H        1 UNK        0.1500
     40 H15          20.718462    3.836435   50.420171 H        1 UNK        0.0000
     41 H16          22.125401    2.729017   50.476621 H        1 UNK        0.0000
     42 H17          21.861028    3.917961   51.799314 H        1 UNK        0.0000
@<TRIPOS>BOND
     1    1    2 1
     2    2    3 1
     3    3    4 2
     4    4    5 1
     5    5    6 ar
     6    6    7 ar
     7    7    8 ar
     8    8    9 ar
     9    9   10 1
    10   10   11 1
    11   11   12 ar
    12   12   13 ar
    13   13   14 ar
    14   14   15 ar
    15   15   16 ar
    16   11   16 ar
    17   14   17 1
    18   17   18 1
    19   17   19 1
    20   17   20 1
    21    9   21 ar
    22    5   21 ar
    23   21   22 1
    24   22   23 2
    25    3   23 1
    26   23   24 1
    27   24   25 1
    28    1   26 1
    29    1   27 1
    30    1   28 1
    31    4   29 1
    32    7   30 1
    33   10   31 1
    34   12   32 1
    35   13   33 1
    36   15   34 1
    37   16   35 1
    38   18   36 1
    39   18   37 1
    40   18   38 1
    41   22   39 1
    42   25   40 1
    43   25   41 1
    44   25   42 1
@<TRIPOS>SUBSTRUCTURE
1 UNK 1 RESIDUE 1 _ UNK
@<SCITEGIC>MOL_PROPERTY
TRIPOS_COMMENT
SciTegic.value.StringValue
> <Gold.Version>
5.3.0
> <Gold.Id.Protein>
1M17_traj_1ns_WTavg_model_1|1M17_traj_1ns_WTavg_5Awater_forGold_Pro|mol2
> <Gold.Protein.ActiveResidues>
LEU718  ALA743  CYS775  THR790  GLN791  LEU792  MET793  PRO794  GLY796  LEU844
THR854
> <Gold.Score>
Fitness  S(hb_ext) S(vdw_ext)  S(hb_int)    S(int)      intcor
51.96       1.33      37.25       0.00      -0.58      -7.42
> <Gold.Goldscore.Fitness>
51.9581
> <Gold.Goldscore.Internal.Vdw>
-4.1911
> <Gold.Goldscore.Internal.Torsion>
-3.8144
> <Gold.Goldscore.External.Vdw>
37.2477
> <Gold.Goldscore.Internal.HBond>
0.0000
> <Gold.Goldscore.External.HBond>
1.3264
> <Gold.Goldscore.Internal.Correction>
-7.4217
> <Gold.Goldscore.Reference.RMSD>
8.6141
> <Gold.Goldscore.Hbonds>
donor molecule, donor type, donor heavy atom, donor atom, acceptor molecule, acceptor atom, score
P1  H  1548  1549       L1     6  0.66
> <Gold.Goldscore.Internal.Vdw.Weighted>
-4.1911
> <Gold.Goldscore.Internal.Torsion.Weighted>
-3.8144
> <Gold.Goldscore.External.Vdw.Weighted>
51.2155
> <Gold.Goldscore.Internal.HBond.Weighted>
0.0000
> <Gold.Goldscore.External.HBond.Weighted>
1.3264
> <Gold.Goldscore.Internal.Correction.Weighted>
-7.4217
> <Gold.Reference.RMSD>
8.6141

@<SCITEGIC>MOL_PROPERTY
REMARK99
SciTegic.value.StringValue
REMARK  99  MacroMolecule created from Mol2 file
REMARK  99  CHEMBL2333985|CHEMBL2333985|mol2|1|dock3
REMARK  99  PROTEIN
REMARK  99  USER_CHARGES
REMARK  99  
REMARK  99  

@<SCITEGIC>ATOM_PROPERTY
Formal Charge
SciTegic.value.StringValue
1 0
2 0
3 0
4 0
5 0
6 0
7 0
8 0
9 0
10 0
11 0
12 0
13 0
14 0
15 0
16 0
17 0
18 0
19 0
20 0
21 0
22 0
23 0
24 0
25 0
26 0
27 0
28 0
29 0
30 0
31 0
32 0
33 0
34 0
35 0
36 0
37 0
38 0
39 0
40 0
41 0
42 0

@<SCITEGIC>ATOM_PROPERTY
pdb_tempFactor
SciTegic.value.DoubleValue
1 0.00
2 0.00
3 0.00
4 0.00
5 0.00
6 0.00
7 0.00
8 0.00
9 0.00
10 0.00
11 0.00
12 0.00
13 0.00
14 0.00
15 0.00
16 0.00
17 0.00
18 0.00
19 0.00
20 0.00
21 0.00
22 0.00
23 0.00
24 0.00
25 0.00
26 0.00
27 0.00
28 0.00
29 0.00
30 0.00
31 0.00
32 0.00
33 0.00
34 0.00
35 0.00
36 0.00
37 0.00
38 0.00
39 0.00
40 0.00
41 0.00
42 0.00

@<SCITEGIC>ATOM_PROPERTY
pdb_occupancy
SciTegic.value.DoubleValue
1 1.00
2 1.00
3 1.00
4 1.00
5 1.00
6 1.00
7 1.00
8 1.00
9 1.00
10 1.00
11 1.00
12 1.00
13 1.00
14 1.00
15 1.00
16 1.00
17 1.00
18 1.00
19 1.00
20 1.00
21 1.00
22 1.00
23 1.00
24 1.00
25 1.00
26 1.00
27 1.00
28 1.00
29 1.00
30 1.00
31 1.00
32 1.00
33 1.00
34 1.00
35 1.00
36 1.00
37 1.00
38 1.00
39 1.00
40 1.00
41 1.00
42 1.00

