#	Created by:	Discovery Studio
#	Creation time:	2018-10-05T11:05:06Z

@<TRIPOS>MOLECULE
CHEMBL379017
   61    64     1 0 0
PROTEIN
USER_CHARGES


@<TRIPOS>ATOM
      1 C1           17.680400   -1.402600   53.297900 C.3      1 UNK        0.2800
      2 O2           18.597300   -0.363400   52.902100 O.3      1 UNK       -0.3625
      3 C3           19.806300   -0.562000   53.201900 C.ar     1 UNK        0.0825
      4 C4           20.614000    0.063400   52.408400 C.ar     1 UNK       -0.1500
      5 C5           21.988600    0.013900   52.582200 C.ar     1 UNK        0.0825
      6 O6           22.916500    0.736200   51.730300 O.3      1 UNK       -0.3625
      7 C7           22.688800    1.974800   51.470100 C.3      1 UNK        0.2800
      8 C8           22.832900    2.812800   52.736100 C.3      1 UNK        0.0000
      9 C9           22.572700    4.180600   52.349700 C.3      1 UNK        0.3557
     10 N10          23.561100    4.637900   51.335900 N.3      1 UNK       -0.8494
     11 C11          23.487400    3.811600   50.122200 C.3      1 UNK        0.3557
     12 C12          23.745800    2.391700   50.468700 C.3      1 UNK        0.0000
     13 S13          23.161400    6.172300   50.986600 S.o2     1 UNK        1.3328
     14 O14          21.705700    6.246900   50.544300 O.2      1 UNK       -0.6500
     15 O15          23.306200    6.950500   52.273800 O.2      1 UNK       -0.6500
     16 C16          24.236700    6.910400   49.715900 C.3      1 UNK        0.1052
     17 C17          22.440400   -0.745000   53.573800 C.ar     1 UNK        0.0000
     18 C18          23.756700   -0.849400   53.764200 C.2      1 UNK        0.4100
     19 N19          24.609600   -0.152400   52.884400 N.pl3    1 UNK       -0.6000
     20 C20          26.068900   -0.221000   52.991200 C.ar     1 UNK        0.1000
     21 C21          26.815900    0.881100   53.156800 C.ar     1 UNK       -0.1500
     22 C22          28.314900    0.761500   53.249000 C.ar     1 UNK       -0.1500
     23 C23          28.906800   -0.437400   53.166900 C.ar     1 UNK        0.1900
     24 F24          30.276800   -0.554100   53.248000 F        1 UNK       -0.1900
     25 C25          28.064500   -1.622800   52.988200 C.ar     1 UNK        0.1770
     26 Cl26         28.706300   -3.202000   52.873800 Cl       1 UNK       -0.1770
     27 C27          26.751700   -1.511600   52.908000 C.ar     1 UNK       -0.1500
     28 N28          24.191800   -1.567100   54.703800 N.2      1 UNK       -0.6200
     29 C29          23.336900   -2.295500   55.614100 C.2      1 UNK        0.4700
     30 N30          22.082100   -2.231300   55.478500 N.2      1 UNK       -0.6200
     31 C31          21.568900   -1.468400   54.465400 C.ar     1 UNK        0.3100
     32 C32          20.280700   -1.374400   54.292800 C.ar     1 UNK       -0.1500
     33 H1           16.710700   -1.231000   52.809900 H        1 UNK        0.0000
     34 H2           17.542400   -1.384600   54.390000 H        1 UNK        0.0000
     35 H3           18.070700   -2.384700   52.988200 H        1 UNK        0.0000
     36 H4           20.210700    0.604300   51.652200 H        1 UNK        0.1500
     37 H5           21.695800    2.097800   51.016600 H        1 UNK        0.0000
     38 H6           22.101900    2.514900   53.489800 H        1 UNK        0.0000
     39 H7           23.846000    2.710200   53.148300 H        1 UNK        0.0000
     40 H8           21.559100    4.252100   51.929800 H        1 UNK        0.0000
     41 H9           22.646400    4.823400   53.236400 H        1 UNK        0.0000
     42 H10          22.479200    3.892600   49.692800 H        1 UNK        0.0000
     43 H11          24.227300    4.153900   49.388200 H        1 UNK        0.0000
     44 H12          23.667500    1.773400   49.564400 H        1 UNK        0.0000
     45 H13          24.746800    2.276000   50.910100 H        1 UNK        0.0000
     46 H14          24.049100    6.418800   48.749800 H        1 UNK        0.0000
     47 H15          25.290200    6.773500   49.997500 H        1 UNK        0.0000
     48 H16          24.015800    7.983800   49.630100 H        1 UNK        0.0000
     49 H17          24.144100    0.420000   52.112400 H        1 UNK        0.4000
     50 H18          26.350200    1.850100   53.223800 H        1 UNK        0.1500
     51 H19          28.910900    1.634000   53.378600 H        1 UNK        0.1500
     52 H20          26.178700   -2.395300   52.778100 H        1 UNK        0.1500
     53 H21          23.761400   -2.899300   56.419600 H        1 UNK        0.1500
     54 H22          19.641700   -1.877900   54.921800 H        1 UNK        0.1500
     55 ?55          18.306900    0.487100   53.340700 ?        1 UNK        0.0000
     56 ?56          18.538800   -0.263000   51.908800 ?        1 UNK        0.0000
     57 ?57          22.947100    0.253600   50.854900 ?        1 UNK        0.0000
     58 ?58          23.814200    0.689000   52.168400 ?        1 UNK        0.0000
     59 ?59          24.495200    4.564200   51.685300 ?        1 UNK        0.0000
     60 ?60          25.181700   -1.636700   54.826600 ?        1 UNK        0.0000
     61 ?61          21.476100   -2.728400   56.099500 ?        1 UNK        0.0000
@<TRIPOS>BOND
     1    1    2 1
     2    2    3 1
     3    3    4 ar
     4    4    5 ar
     5    5    6 1
     6    6    7 1
     7    7    8 1
     8    8    9 1
     9    9   10 1
    10   10   11 1
    11   11   12 1
    12    7   12 1
    13   10   13 1
    14   13   14 2
    15   13   15 2
    16   13   16 1
    17    5   17 ar
    18   17   18 1
    19   18   19 1
    20   19   20 1
    21   20   21 ar
    22   21   22 ar
    23   22   23 ar
    24   23   24 1
    25   23   25 ar
    26   25   26 1
    27   25   27 ar
    28   20   27 ar
    29   18   28 2
    30   28   29 1
    31   29   30 2
    32   30   31 1
    33   17   31 ar
    34   31   32 ar
    35    3   32 ar
    36    1   33 1
    37    1   34 1
    38    1   35 1
    39    4   36 1
    40    7   37 1
    41    8   38 1
    42    8   39 1
    43    9   40 1
    44    9   41 1
    45   11   42 1
    46   11   43 1
    47   12   44 1
    48   12   45 1
    49   16   46 1
    50   16   47 1
    51   16   48 1
    52   19   49 1
    53   21   50 1
    54   22   51 1
    55   27   52 1
    56   29   53 1
    57   32   54 1
    58    2   55 1
    59    2   56 1
    60    6   57 1
    61    6   58 1
    62   10   59 1
    63   28   60 1
    64   30   61 1
@<TRIPOS>SUBSTRUCTURE
1 UNK 1 RESIDUE 1 _ UNK
@<SCITEGIC>MOL_PROPERTY
TRIPOS_COMMENT
SciTegic.value.StringValue
> <Gold.Version>
5.3.0
> <Gold.Id.Protein>
1M17_traj_1ns_WTavg_model_1|1M17_traj_1ns_WTavg_5Awater_forGold_Pro|mol2
> <Gold.Protein.ActiveResidues>
LEU718  ALA743  CYS775  THR790  GLN791  LEU792  MET793  PRO794  GLY796  LEU844
THR854
> <Gold.Score>
Fitness  S(hb_ext) S(vdw_ext)  S(hb_int)    S(int)      intcor
56.47       1.83      45.72       0.00      -8.22     -46.70
> <Gold.Goldscore.Fitness>
56.4737
> <Gold.Goldscore.Internal.Vdw>
-47.9876
> <Gold.Goldscore.Internal.Torsion>
-6.9271
> <Gold.Goldscore.External.Vdw>
45.7180
> <Gold.Goldscore.Internal.HBond>
0.0000
> <Gold.Goldscore.External.HBond>
1.8277
> <Gold.Goldscore.Internal.Correction>
-46.6984
> <Gold.Goldscore.Reference.RMSD>
7.1505
> <Gold.Goldscore.Hbonds>
donor molecule, donor type, donor heavy atom, donor atom, acceptor molecule, acceptor atom, score
P1  H  1548  1549       L1    30  0.91
> <Gold.Goldscore.Internal.Vdw.Weighted>
-47.9876
> <Gold.Goldscore.Internal.Torsion.Weighted>
-6.9271
> <Gold.Goldscore.External.Vdw.Weighted>
62.8623
> <Gold.Goldscore.Internal.HBond.Weighted>
0.0000
> <Gold.Goldscore.External.HBond.Weighted>
1.8277
> <Gold.Goldscore.Internal.Correction.Weighted>
-46.6984
> <Gold.Reference.RMSD>
7.1505

@<SCITEGIC>MOL_PROPERTY
REMARK99
SciTegic.value.StringValue
REMARK  99  MacroMolecule created from Mol2 file
REMARK  99  CHEMBL379017|CHEMBL379017|mol2|1|dock5
REMARK  99  PROTEIN
REMARK  99  USER_CHARGES
REMARK  99  
REMARK  99  

@<SCITEGIC>ATOM_PROPERTY
Formal Charge
SciTegic.value.StringValue
1 0
2 0
3 0
4 0
5 0
6 0
7 0
8 0
9 0
10 0
11 0
12 0
13 0
14 0
15 0
16 0
17 0
18 0
19 0
20 0
21 0
22 0
23 0
24 0
25 0
26 0
27 0
28 0
29 0
30 0
31 0
32 0
33 0
34 0
35 0
36 0
37 0
38 0
39 0
40 0
41 0
42 0
43 0
44 0
45 0
46 0
47 0
48 0
49 0
50 0
51 0
52 0
53 0
54 0
55 0
56 0
57 0
58 0
59 0
60 0
61 0

@<SCITEGIC>ATOM_PROPERTY
pdb_tempFactor
SciTegic.value.DoubleValue
1 0.00
2 0.00
3 0.00
4 0.00
5 0.00
6 0.00
7 0.00
8 0.00
9 0.00
10 0.00
11 0.00
12 0.00
13 0.00
14 0.00
15 0.00
16 0.00
17 0.00
18 0.00
19 0.00
20 0.00
21 0.00
22 0.00
23 0.00
24 0.00
25 0.00
26 0.00
27 0.00
28 0.00
29 0.00
30 0.00
31 0.00
32 0.00
33 0.00
34 0.00
35 0.00
36 0.00
37 0.00
38 0.00
39 0.00
40 0.00
41 0.00
42 0.00
43 0.00
44 0.00
45 0.00
46 0.00
47 0.00
48 0.00
49 0.00
50 0.00
51 0.00
52 0.00
53 0.00
54 0.00
55 0.00
56 0.00
57 0.00
58 0.00
59 0.00
60 0.00
61 0.00

@<SCITEGIC>ATOM_PROPERTY
pdb_occupancy
SciTegic.value.DoubleValue
1 1.00
2 1.00
3 1.00
4 1.00
5 1.00
6 1.00
7 1.00
8 1.00
9 1.00
10 1.00
11 1.00
12 1.00
13 1.00
14 1.00
15 1.00
16 1.00
17 1.00
18 1.00
19 1.00
20 1.00
21 1.00
22 1.00
23 1.00
24 1.00
25 1.00
26 1.00
27 1.00
28 1.00
29 1.00
30 1.00
31 1.00
32 1.00
33 1.00
34 1.00
35 1.00
36 1.00
37 1.00
38 1.00
39 1.00
40 1.00
41 1.00
42 1.00
43 1.00
44 1.00
45 1.00
46 1.00
47 1.00
48 1.00
49 1.00
50 1.00
51 1.00
52 1.00
53 1.00
54 1.00
55 1.00
56 1.00
57 1.00
58 1.00
59 1.00
60 1.00
61 1.00

