#	Created by:	Discovery Studio
#	Creation time:	2018-10-03T21:42:21Z

@<TRIPOS>MOLECULE
CHEMBL3218424|CHEMBL3218424|mol2|1|dock5
   32    34     1 0 0
PROTEIN
USER_CHARGES


@<TRIPOS>ATOM
      1 O1           21.157505    2.760617   51.103079 O.3      1 UNK        0.0000
      2 B2           20.321737    1.994723   51.989147 B        1 UNK        0.0000
      3 O3           18.892399    2.128059   51.927523 O.3      1 UNK        0.0000
      4 C4           20.946176    1.043828   52.973562 C.ar     1 UNK        0.0000
      5 C5           20.177845    0.201949   53.654927 C.ar     1 UNK        0.0000
      6 C6           20.782023   -0.711415   54.605375 C.ar     1 UNK        0.0000
      7 C7           22.096419   -0.688846   54.807700 C.ar     1 UNK        0.0000
      8 N8           22.662588   -1.587358   55.690654 N.2      1 UNK        0.0000
      9 C9           23.920058   -1.627864   55.877154 C.2      1 UNK        0.0000
     10 N10          24.807281   -0.744806   55.219216 N.2      1 UNK        0.0000
     11 C11          24.437036    0.165125   54.405619 C.2      1 UNK        0.0000
     12 N12          25.538483    0.958816   53.856633 N.pl3    1 UNK        0.0000
     13 C13          26.966209    0.759953   53.971912 C.ar     1 UNK        0.0000
     14 C14          27.823497    1.644581   54.492057 C.ar     1 UNK        0.0000
     15 C15          29.253317    1.328953   54.575473 C.ar     1 UNK        0.0000
     16 C16          29.704082    0.150175   54.155002 C.ar     1 UNK        0.0000
     17 C17          28.774088   -0.829775   53.614271 C.ar     1 UNK        0.0000
     18 Cl18         29.350991   -2.370309   53.086184 Cl       1 UNK        0.0000
     19 C19          27.478393   -0.541733   53.527960 C.ar     1 UNK        0.0000
     20 C20          22.953365    0.242782   54.089788 C.ar     1 UNK        0.0000
     21 C21          22.395094    1.056372   53.186023 C.ar     1 UNK        0.0000
     22 H1           21.346124    2.233719   50.287953 H        1 UNK        0.0000
     23 H2           18.553973    1.674047   51.116533 H        1 UNK        0.0000
     24 H3           19.128621    0.193291   53.501130 H        1 UNK        0.0000
     25 H4           20.176851   -1.403978   55.133326 H        1 UNK        0.0000
     26 H5           24.314992   -2.338991   56.557344 H        1 UNK        0.0000
     27 H6           25.267910    1.689941   53.241622 H        1 UNK        0.0000
     28 H7           27.478965    2.574453   54.846893 H        1 UNK        0.0000
     29 H8           29.930217    2.041677   54.972652 H        1 UNK        0.0000
     30 H9           30.738371   -0.077316   54.216877 H        1 UNK        0.0000
     31 H10          26.806127   -1.261754   53.134801 H        1 UNK        0.0000
     32 H11          22.984679    1.712714   52.626481 H        1 UNK        0.0000
@<TRIPOS>BOND
     1    1    2 1
     2    2    3 1
     3    2    4 1
     4    4    5 ar
     5    5    6 ar
     6    6    7 ar
     7    7    8 1
     8    8    9 2
     9    9   10 1
    10   10   11 2
    11   11   12 1
    12   12   13 1
    13   13   14 ar
    14   14   15 ar
    15   15   16 ar
    16   16   17 ar
    17   17   18 1
    18   17   19 ar
    19   13   19 ar
    20   11   20 1
    21    7   20 ar
    22   20   21 ar
    23    4   21 ar
    24    1   22 1
    25    3   23 1
    26    5   24 1
    27    6   25 1
    28    9   26 1
    29   12   27 1
    30   14   28 1
    31   15   29 1
    32   16   30 1
    33   19   31 1
    34   21   32 1
@<TRIPOS>SUBSTRUCTURE
1 UNK 1 RESIDUE 1 _ UNK
@<SCITEGIC>MOL_PROPERTY
TRIPOS_COMMENT
SciTegic.value.StringValue
> <Gold.Version>
5.3.0
> <Gold.Id.Protein>
1M17_traj_1ns_WTavg_model_1|1M17_traj_1ns_WTavg_5Awater_forGold_Pro|mol2
> <Gold.Protein.ActiveResidues>
LEU718  ALA743  CYS775  THR790  GLN791  LEU792  MET793  PRO794  GLY796  LEU844
THR854
> <Gold.Score>
Fitness  S(hb_ext) S(vdw_ext)  S(hb_int)    S(int)      intcor
53.96       1.95      40.21       0.00      -3.28      -1.70
> <Gold.Goldscore.Fitness>
53.9620
> <Gold.Goldscore.Internal.Vdw>
1.4780
> <Gold.Goldscore.Internal.Torsion>
-6.4603
> <Gold.Goldscore.External.Vdw>
40.2141
> <Gold.Goldscore.Internal.HBond>
0.0000
> <Gold.Goldscore.External.HBond>
1.9469
> <Gold.Goldscore.Internal.Correction>
-1.7030
> <Gold.Goldscore.Reference.RMSD>
7.3003
> <Gold.Goldscore.Hbonds>
donor molecule, donor type, donor heavy atom, donor atom, acceptor molecule, acceptor atom, score
P1  H  1548  1549       L1     8  0.97
> <Gold.Goldscore.Internal.Vdw.Weighted>
1.4780
> <Gold.Goldscore.Internal.Torsion.Weighted>
-6.4603
> <Gold.Goldscore.External.Vdw.Weighted>
55.2944
> <Gold.Goldscore.Internal.HBond.Weighted>
0.0000
> <Gold.Goldscore.External.HBond.Weighted>
1.9469
> <Gold.Goldscore.Internal.Correction.Weighted>
-1.7030
> <Gold.Reference.RMSD>
7.3003

@<SCITEGIC>MOL_PROPERTY
REMARK99
SciTegic.value.StringValue
REMARK  99  MacroMolecule created from Mol2 file
REMARK  99  CHEMBL3218424|CHEMBL3218424|mol2|1|dock5
REMARK  99  PROTEIN
REMARK  99  USER_CHARGES
REMARK  99  
REMARK  99  

@<SCITEGIC>ATOM_PROPERTY
Formal Charge
SciTegic.value.StringValue
1 0
2 0
3 0
4 0
5 0
6 0
7 0
8 0
9 0
10 0
11 0
12 0
13 0
14 0
15 0
16 0
17 0
18 0
19 0
20 0
21 0
22 0
23 0
24 0
25 0
26 0
27 0
28 0
29 0
30 0
31 0
32 0

@<SCITEGIC>ATOM_PROPERTY
pdb_tempFactor
SciTegic.value.DoubleValue
1 0.00
2 0.00
3 0.00
4 0.00
5 0.00
6 0.00
7 0.00
8 0.00
9 0.00
10 0.00
11 0.00
12 0.00
13 0.00
14 0.00
15 0.00
16 0.00
17 0.00
18 0.00
19 0.00
20 0.00
21 0.00
22 0.00
23 0.00
24 0.00
25 0.00
26 0.00
27 0.00
28 0.00
29 0.00
30 0.00
31 0.00
32 0.00

@<SCITEGIC>ATOM_PROPERTY
pdb_occupancy
SciTegic.value.DoubleValue
1 1.00
2 1.00
3 1.00
4 1.00
5 1.00
6 1.00
7 1.00
8 1.00
9 1.00
10 1.00
11 1.00
12 1.00
13 1.00
14 1.00
15 1.00
16 1.00
17 1.00
18 1.00
19 1.00
20 1.00
21 1.00
22 1.00
23 1.00
24 1.00
25 1.00
26 1.00
27 1.00
28 1.00
29 1.00
30 1.00
31 1.00
32 1.00

