#	Created by:	Discovery Studio
#	Creation time:	2018-10-05T09:06:03Z

@<TRIPOS>MOLECULE
CHEMBL289787
   32    34     1 0 0
PROTEIN
USER_CHARGES


@<TRIPOS>ATOM
      1 C1           18.470747   -1.813268   53.975242 C.3      1 UNK        0.2800
      2 O2           19.787176   -1.874091   54.611273 O.3      1 UNK       -0.3625
      3 C3           20.753919   -0.885278   54.182927 C.2      1 UNK        0.0825
      4 C4           20.437981    0.063191   53.285252 C.2      1 UNK       -0.1500
      5 C5           21.447140    1.054804   52.871234 C.2      1 UNK       -0.1500
      6 C6           22.688810    1.067915   53.346860 C.2      1 UNK       -0.1500
      7 C7           23.126240    0.110051   54.299767 C.ar     1 UNK        0.0000
      8 C8           24.385159    0.135795   54.771793 C.ar     1 UNK        0.4100
      9 N9           25.370749    1.181667   54.304245 N.pl3    1 UNK       -0.6000
     10 C10          26.756226    0.836555   54.088440 C.ar     1 UNK        0.1000
     11 C11          27.705968    1.778720   54.130813 C.ar     1 UNK       -0.1500
     12 C12          29.111901    1.412852   53.909320 C.ar     1 UNK       -0.1500
     13 C13          29.444946    0.146715   53.666338 C.ar     1 UNK       -0.1500
     14 C14          28.428476   -0.877048   53.618468 C.ar     1 UNK        0.1110
     15 Br15         28.855236   -2.694357   53.275720 Br       1 UNK       -0.1110
     16 C16          27.166412   -0.556914   53.815962 C.ar     1 UNK       -0.1500
     17 N17          24.755470   -0.858476   55.728280 N.ar     1 UNK       -0.6200
     18 C18          23.910375   -1.755709   56.129456 C.ar     1 UNK        0.4700
     19 N19          22.550708   -1.759888   55.600448 N.ar     1 UNK       -0.6200
     20 C20          22.169129   -0.898651   54.748175 C.ar     1 UNK        0.3100
     21 H1           17.840849   -2.624437   54.367486 H        1 UNK        0.0000
     22 H2           18.578675   -1.931404   52.886410 H        1 UNK        0.0000
     23 H3           17.995948   -0.845348   54.196566 H        1 UNK        0.0000
     24 H4           19.433538    0.119986   52.845454 H        1 UNK        0.1500
     25 H5           21.188188    1.768087   52.187665 H        1 UNK        0.1500
     26 H6           23.342884    1.784581   53.018194 H        1 UNK        0.1500
     27 H7           25.070557    2.157729   54.131791 H        1 UNK        0.4000
     28 H8           27.458807    2.790651   54.322814 H        1 UNK        0.1500
     29 H9           29.867663    2.161095   53.942798 H        1 UNK        0.1500
     30 H10          30.434049   -0.108146   53.510850 H        1 UNK        0.1500
     31 H11          26.442439   -1.328242   53.775052 H        1 UNK        0.1500
     32 H12          24.200919   -2.508176   56.857332 H        1 UNK        0.1500
@<TRIPOS>BOND
     1    1    2 1
     2    2    3 1
     3    3    4 2
     4    4    5 1
     5    5    6 2
     6    6    7 1
     7    7    8 ar
     8    8    9 1
     9    9   10 1
    10   10   11 ar
    11   11   12 ar
    12   12   13 ar
    13   13   14 ar
    14   14   15 1
    15   14   16 ar
    16   10   16 ar
    17    8   17 ar
    18   17   18 ar
    19   18   19 ar
    20   19   20 ar
    21    3   20 1
    22    7   20 ar
    23    1   21 1
    24    1   22 1
    25    1   23 1
    26    4   24 1
    27    5   25 1
    28    6   26 1
    29    9   27 1
    30   11   28 1
    31   12   29 1
    32   13   30 1
    33   16   31 1
    34   18   32 1
@<TRIPOS>SUBSTRUCTURE
1 UNK 1 RESIDUE 1 _ UNK
@<SCITEGIC>MOL_PROPERTY
TRIPOS_COMMENT
SciTegic.value.StringValue
> <Gold.Version>
5.3.0
> <Gold.Id.Protein>
1M17_traj_1ns_WTavg_model_1|1M17_traj_1ns_WTavg_5Awater_forGold_Pro|mol2
> <Gold.Protein.ActiveResidues>
LEU718  ALA743  CYS775  THR790  GLN791  LEU792  MET793  PRO794  GLY796  LEU844
THR854
> <Gold.Score>
Fitness  S(hb_ext) S(vdw_ext)  S(hb_int)    S(int)      intcor
53.85       1.17      38.78       0.00      -0.65      -8.26
> <Gold.Goldscore.Fitness>
53.8525
> <Gold.Goldscore.Internal.Vdw>
-5.4449
> <Gold.Goldscore.Internal.Torsion>
-3.4674
> <Gold.Goldscore.External.Vdw>
38.7834
> <Gold.Goldscore.Internal.HBond>
0.0000
> <Gold.Goldscore.External.HBond>
1.1737
> <Gold.Goldscore.Internal.Correction>
-8.2639
> <Gold.Goldscore.Reference.RMSD>
6.7241
> <Gold.Goldscore.Hbonds>
donor molecule, donor type, donor heavy atom, donor atom, acceptor molecule, acceptor atom, score
P1  H  1548  1549       L1    19  0.59
> <Gold.Goldscore.Internal.Vdw.Weighted>
-5.4449
> <Gold.Goldscore.Internal.Torsion.Weighted>
-3.4674
> <Gold.Goldscore.External.Vdw.Weighted>
53.3272
> <Gold.Goldscore.Internal.HBond.Weighted>
0.0000
> <Gold.Goldscore.External.HBond.Weighted>
1.1737
> <Gold.Goldscore.Internal.Correction.Weighted>
-8.2639
> <Gold.Reference.RMSD>
6.7241

@<SCITEGIC>MOL_PROPERTY
REMARK99
SciTegic.value.StringValue
REMARK  99  MacroMolecule created from Mol2 file
REMARK  99  CHEMBL289787|CHEMBL289787|mol2|1|dock1
REMARK  99  PROTEIN
REMARK  99  USER_CHARGES
REMARK  99  
REMARK  99  

@<SCITEGIC>ATOM_PROPERTY
Formal Charge
SciTegic.value.StringValue
1 0
2 0
3 0
4 0
5 0
6 0
7 0
8 0
9 0
10 0
11 0
12 0
13 0
14 0
15 0
16 0
17 0
18 0
19 0
20 0
21 0
22 0
23 0
24 0
25 0
26 0
27 0
28 0
29 0
30 0
31 0
32 0

@<SCITEGIC>ATOM_PROPERTY
pdb_tempFactor
SciTegic.value.DoubleValue
1 0.00
2 0.00
3 0.00
4 0.00
5 0.00
6 0.00
7 0.00
8 0.00
9 0.00
10 0.00
11 0.00
12 0.00
13 0.00
14 0.00
15 0.00
16 0.00
17 0.00
18 0.00
19 0.00
20 0.00
21 0.00
22 0.00
23 0.00
24 0.00
25 0.00
26 0.00
27 0.00
28 0.00
29 0.00
30 0.00
31 0.00
32 0.00

@<SCITEGIC>ATOM_PROPERTY
pdb_occupancy
SciTegic.value.DoubleValue
1 1.00
2 1.00
3 1.00
4 1.00
5 1.00
6 1.00
7 1.00
8 1.00
9 1.00
10 1.00
11 1.00
12 1.00
13 1.00
14 1.00
15 1.00
16 1.00
17 1.00
18 1.00
19 1.00
20 1.00
21 1.00
22 1.00
23 1.00
24 1.00
25 1.00
26 1.00
27 1.00
28 1.00
29 1.00
30 1.00
31 1.00
32 1.00

