#	Created by:	Discovery Studio
#	Creation time:	2018-10-03T22:31:25Z

@<TRIPOS>MOLECULE
CHEMBL1928712|CHEMBL1928712|mol2|1|dock3
   43    46     1 0 0
PROTEIN
USER_CHARGES


@<TRIPOS>ATOM
      1 Br1          15.571458    5.643079   54.957196 Br       1 UNK       -0.1110
      2 C2           16.598833    4.553066   53.788681 C.ar     1 UNK        0.1110
      3 C3           17.711492    5.034722   53.241185 C.ar     1 UNK       -0.1500
      4 C4           18.498517    4.215820   52.354316 C.ar     1 UNK       -0.1500
      5 C5           18.116454    2.976457   52.079870 C.ar     1 UNK       -0.1435
      6 C6           18.962604    2.183648   51.164816 C.3      1 UNK        0.5126
      7 N7           20.353122    1.954641   51.636001 N.pl3    1 UNK       -0.8691
      8 C8           20.765196    0.940458   52.763829 C.ar     1 UNK        0.1000
      9 C9           19.937779    0.172400   53.529308 C.ar     1 UNK       -0.1500
     10 C10          20.568748   -0.767272   54.619798 C.ar     1 UNK       -0.1500
     11 C11          21.906567   -0.807745   54.817608 C.ar     1 UNK        0.3100
     12 N12          22.487865   -1.671998   55.800161 N.2      1 UNK       -0.6200
     13 C13          23.749575   -1.737704   55.985601 C.2      1 UNK        0.4700
     14 N14          24.654611   -0.886673   55.195111 N.2      1 UNK       -0.6200
     15 C15          24.314741   -0.043580   54.277389 C.2      1 UNK        0.4100
     16 N16          25.565286    0.713921   53.668471 N.pl3    1 UNK       -0.6000
     17 C17          27.050029    0.542285   53.867819 C.ar     1 UNK        0.1000
     18 C18          27.731302    1.688371   54.013329 C.ar     1 UNK       -0.1500
     19 C19          29.176582    1.698663   54.215622 C.ar     1 UNK       -0.1500
     20 C20          29.861202    0.563828   54.265398 C.ar     1 UNK       -0.1500
     21 C21          29.167194   -0.716407   54.105284 C.ar     1 UNK        0.1110
     22 Br22         30.138604   -2.384345   54.192206 Br       1 UNK       -0.1110
     23 C23          27.846354   -0.734338   53.902713 C.ar     1 UNK       -0.1500
     24 C24          22.790244    0.042798   53.986941 C.ar     1 UNK        0.0000
     25 C25          22.254181    0.815061   53.038757 C.ar     1 UNK       -0.1500
     26 C26          16.892411    2.439782   52.677963 C.ar     1 UNK       -0.1500
     27 C27          16.167800    3.199402   53.497569 C.ar     1 UNK       -0.1500
     28 H1           18.022750    6.009585   53.450571 H        1 UNK        0.1500
     29 H2           19.385704    4.605107   51.920380 H        1 UNK        0.1500
     30 H3           18.470791    1.219772   50.970120 H        1 UNK        0.0000
     31 H4           18.978548    2.678407   50.184164 H        1 UNK        0.0000
     32 H5           21.125885    2.483009   51.221757 H        1 UNK        0.4000
     33 H6           18.831722    0.192352   53.402428 H        1 UNK        0.1500
     34 H7           19.925517   -1.411244   55.242377 H        1 UNK        0.1500
     35 H8           24.146905   -2.396488   56.723334 H        1 UNK        0.1500
     36 H9           25.305819    1.442741   52.992587 H        1 UNK        0.4000
     37 H10          27.218409    2.619452   53.986371 H        1 UNK        0.1500
     38 H11          29.685614    2.623874   54.326979 H        1 UNK        0.1500
     39 H12          30.905815    0.597803   54.413244 H        1 UNK        0.1500
     40 H13          27.380679   -1.659848   53.773535 H        1 UNK        0.1500
     41 H14          22.889205    1.350293   52.478154 H        1 UNK        0.1500
     42 H15          16.585838    1.468981   52.465702 H        1 UNK        0.1500
     43 H16          15.275449    2.822391   53.940671 H        1 UNK        0.1500
@<TRIPOS>BOND
     1    1    2 1
     2    2    3 ar
     3    3    4 ar
     4    4    5 ar
     5    5    6 1
     6    6    7 1
     7    7    8 1
     8    8    9 ar
     9    9   10 ar
    10   10   11 ar
    11   11   12 1
    12   12   13 2
    13   13   14 1
    14   14   15 2
    15   15   16 1
    16   16   17 1
    17   17   18 ar
    18   18   19 ar
    19   19   20 ar
    20   20   21 ar
    21   21   22 1
    22   21   23 ar
    23   17   23 ar
    24   15   24 1
    25   11   24 ar
    26   24   25 ar
    27    8   25 ar
    28    5   26 ar
    29   26   27 ar
    30    2   27 ar
    31    3   28 1
    32    4   29 1
    33    6   30 1
    34    6   31 1
    35    7   32 1
    36    9   33 1
    37   10   34 1
    38   13   35 1
    39   16   36 1
    40   18   37 1
    41   19   38 1
    42   20   39 1
    43   23   40 1
    44   25   41 1
    45   26   42 1
    46   27   43 1
@<TRIPOS>SUBSTRUCTURE
1 UNK 1 RESIDUE 1 _ UNK
@<SCITEGIC>MOL_PROPERTY
TRIPOS_COMMENT
SciTegic.value.StringValue
> <Gold.Version>
5.3.0
> <Gold.Id.Protein>
1M17_traj_1ns_WTavg_model_1|1M17_traj_1ns_WTavg_5Awater_forGold_Pro|mol2
> <Gold.Protein.ActiveResidues>
LEU718  ALA743  CYS775  THR790  GLN791  LEU792  MET793  PRO794  GLY796  LEU844
THR854
> <Gold.Score>
Fitness  S(hb_ext) S(vdw_ext)  S(hb_int)    S(int)      intcor
65.26       1.99      47.57       0.00      -2.13      -1.69
> <Gold.Goldscore.Fitness>
65.2623
> <Gold.Goldscore.Internal.Vdw>
1.4090
> <Gold.Goldscore.Internal.Torsion>
-5.2346
> <Gold.Goldscore.External.Vdw>
47.5682
> <Gold.Goldscore.Internal.HBond>
0.0000
> <Gold.Goldscore.External.HBond>
1.9898
> <Gold.Goldscore.Internal.Correction>
-1.6918
> <Gold.Goldscore.Reference.RMSD>
9.2738
> <Gold.Goldscore.Hbonds>
donor molecule, donor type, donor heavy atom, donor atom, acceptor molecule, acceptor atom, score
P1  H  1548  1549       L1    12  0.99
> <Gold.Goldscore.Internal.Vdw.Weighted>
1.4090
> <Gold.Goldscore.Internal.Torsion.Weighted>
-5.2346
> <Gold.Goldscore.External.Vdw.Weighted>
65.4062
> <Gold.Goldscore.Internal.HBond.Weighted>
0.0000
> <Gold.Goldscore.External.HBond.Weighted>
1.9898
> <Gold.Goldscore.Internal.Correction.Weighted>
-1.6918
> <Gold.Reference.RMSD>
9.2738

@<SCITEGIC>MOL_PROPERTY
REMARK99
SciTegic.value.StringValue
REMARK  99  MacroMolecule created from Mol2 file
REMARK  99  CHEMBL1928712|CHEMBL1928712|mol2|1|dock3
REMARK  99  PROTEIN
REMARK  99  USER_CHARGES
REMARK  99  
REMARK  99  

@<SCITEGIC>ATOM_PROPERTY
Formal Charge
SciTegic.value.StringValue
1 0
2 0
3 0
4 0
5 0
6 0
7 0
8 0
9 0
10 0
11 0
12 0
13 0
14 0
15 0
16 0
17 0
18 0
19 0
20 0
21 0
22 0
23 0
24 0
25 0
26 0
27 0
28 0
29 0
30 0
31 0
32 0
33 0
34 0
35 0
36 0
37 0
38 0
39 0
40 0
41 0
42 0
43 0

@<SCITEGIC>ATOM_PROPERTY
pdb_tempFactor
SciTegic.value.DoubleValue
1 0.00
2 0.00
3 0.00
4 0.00
5 0.00
6 0.00
7 0.00
8 0.00
9 0.00
10 0.00
11 0.00
12 0.00
13 0.00
14 0.00
15 0.00
16 0.00
17 0.00
18 0.00
19 0.00
20 0.00
21 0.00
22 0.00
23 0.00
24 0.00
25 0.00
26 0.00
27 0.00
28 0.00
29 0.00
30 0.00
31 0.00
32 0.00
33 0.00
34 0.00
35 0.00
36 0.00
37 0.00
38 0.00
39 0.00
40 0.00
41 0.00
42 0.00
43 0.00

@<SCITEGIC>ATOM_PROPERTY
pdb_occupancy
SciTegic.value.DoubleValue
1 1.00
2 1.00
3 1.00
4 1.00
5 1.00
6 1.00
7 1.00
8 1.00
9 1.00
10 1.00
11 1.00
12 1.00
13 1.00
14 1.00
15 1.00
16 1.00
17 1.00
18 1.00
19 1.00
20 1.00
21 1.00
22 1.00
23 1.00
24 1.00
25 1.00
26 1.00
27 1.00
28 1.00
29 1.00
30 1.00
31 1.00
32 1.00
33 1.00
34 1.00
35 1.00
36 1.00
37 1.00
38 1.00
39 1.00
40 1.00
41 1.00
42 1.00
43 1.00

