#	Created by:	Discovery Studio
#	Creation time:	2018-10-05T09:00:02Z

@<TRIPOS>MOLECULE
CHEMBL96627
   36    38     1 0 0
PROTEIN
USER_CHARGES


@<TRIPOS>ATOM
      1 C1           18.700764    2.288205   52.016312 C.3      1 UNK        0.2800
      2 O2           20.121815    1.892251   51.986235 O.3      1 UNK       -0.3625
      3 C3           21.002530    1.129605   52.970933 C.ar     1 UNK        0.0825
      4 C4           20.234135    0.334967   53.737237 C.ar     1 UNK       -0.1500
      5 C5           20.808085   -0.536933   54.795516 C.ar     1 UNK       -0.1500
      6 C6           22.112142   -0.587288   55.050889 C.ar     1 UNK        0.3100
      7 N7           22.639007   -1.447650   56.089254 N.2      1 UNK       -0.6200
      8 C8           23.891518   -1.495841   56.333834 C.2      1 UNK        0.4700
      9 N9           24.845500   -0.668644   55.557310 N.2      1 UNK       -0.6200
     10 C10          24.483508    0.120596   54.624393 C.2      1 UNK        0.4100
     11 N11          25.482443    0.883211   53.925968 N.pl3    1 UNK       -0.6000
     12 C12          26.910042    0.734384   54.047394 C.ar     1 UNK        0.1000
     13 C13          27.771587    1.733638   54.337108 C.ar     1 UNK       -0.1500
     14 C14          29.253341    1.438219   54.436251 C.ar     1 UNK       -0.1500
     15 C15          29.673384    0.199222   54.235528 C.ar     1 UNK       -0.1500
     16 C16          28.736366   -0.859706   53.925827 C.ar     1 UNK        0.1110
     17 Br17         29.387889   -2.627890   53.644809 Br       1 UNK       -0.1110
     18 C18          27.438153   -0.618122   53.835400 C.ar     1 UNK       -0.1500
     19 C19          23.030235    0.238376   54.272657 C.ar     1 UNK        0.0000
     20 C20          22.608667    1.070275   53.283158 C.ar     1 UNK        0.0825
     21 O21          23.737579    1.770079   52.678668 O.3      1 UNK       -0.3625
     22 C22          23.579883    2.672878   51.677272 C.3      1 UNK        0.2800
     23 H1           18.454392    2.680272   53.013360 H        1 UNK        0.0000
     24 H2           18.070277    1.413800   51.804384 H        1 UNK        0.0000
     25 H3           18.519833    3.068745   51.264696 H        1 UNK        0.0000
     26 H4           19.126803    0.327218   53.575838 H        1 UNK        0.1500
     27 H5           20.175529   -1.121698   55.349369 H        1 UNK        0.1500
     28 H6           24.245948   -2.152846   57.119580 H        1 UNK        0.1500
     29 H7           25.088853    1.625071   53.255798 H        1 UNK        0.4000
     30 H8           27.409960    2.726381   54.495621 H        1 UNK        0.1500
     31 H9           30.004878    2.212817   54.669928 H        1 UNK        0.1500
     32 H10          30.690112   -0.015392   54.301314 H        1 UNK        0.1500
     33 H11          26.779367   -1.420732   53.606160 H        1 UNK        0.1500
     34 H12          22.931250    3.488843   52.026429 H        1 UNK        0.0000
     35 H13          23.112459    2.183339   50.814404 H        1 UNK        0.0000
     36 H14          24.557769    3.082782   51.397794 H        1 UNK        0.0000
@<TRIPOS>BOND
     1    1    2 1
     2    2    3 1
     3    3    4 ar
     4    4    5 ar
     5    5    6 ar
     6    6    7 1
     7    7    8 2
     8    8    9 1
     9    9   10 2
    10   10   11 1
    11   11   12 1
    12   12   13 ar
    13   13   14 ar
    14   14   15 ar
    15   15   16 ar
    16   16   17 1
    17   16   18 ar
    18   12   18 ar
    19   10   19 1
    20    6   19 ar
    21   19   20 ar
    22    3   20 ar
    23   20   21 1
    24   21   22 1
    25    1   23 1
    26    1   24 1
    27    1   25 1
    28    4   26 1
    29    5   27 1
    30    8   28 1
    31   11   29 1
    32   13   30 1
    33   14   31 1
    34   15   32 1
    35   18   33 1
    36   22   34 1
    37   22   35 1
    38   22   36 1
@<TRIPOS>SUBSTRUCTURE
1 UNK 1 RESIDUE 1 _ UNK
@<SCITEGIC>MOL_PROPERTY
TRIPOS_COMMENT
SciTegic.value.StringValue
> <Gold.Version>
5.3.0
> <Gold.Id.Protein>
1M17_traj_1ns_WTavg_model_1|1M17_traj_1ns_WTavg_5Awater_forGold_Pro|mol2
> <Gold.Protein.ActiveResidues>
LEU718  ALA743  CYS775  THR790  GLN791  LEU792  MET793  PRO794  GLY796  LEU844
THR854
> <Gold.Score>
Fitness  S(hb_ext) S(vdw_ext)  S(hb_int)    S(int)      intcor
52.86       1.94      40.99       0.00      -5.44     -38.93
> <Gold.Goldscore.Fitness>
52.8628
> <Gold.Goldscore.Internal.Vdw>
-38.1363
> <Gold.Goldscore.Internal.Torsion>
-6.2409
> <Gold.Goldscore.External.Vdw>
40.9925
> <Gold.Goldscore.Internal.HBond>
0.0000
> <Gold.Goldscore.External.HBond>
1.9413
> <Gold.Goldscore.Internal.Correction>
-38.9339
> <Gold.Goldscore.Reference.RMSD>
7.6449
> <Gold.Goldscore.Hbonds>
donor molecule, donor type, donor heavy atom, donor atom, acceptor molecule, acceptor atom, score
P1  H  1548  1549       L1     7  0.97
> <Gold.Goldscore.Internal.Vdw.Weighted>
-38.1363
> <Gold.Goldscore.Internal.Torsion.Weighted>
-6.2409
> <Gold.Goldscore.External.Vdw.Weighted>
56.3647
> <Gold.Goldscore.Internal.HBond.Weighted>
0.0000
> <Gold.Goldscore.External.HBond.Weighted>
1.9413
> <Gold.Goldscore.Internal.Correction.Weighted>
-38.9339
> <Gold.Reference.RMSD>
7.6449

@<SCITEGIC>MOL_PROPERTY
REMARK99
SciTegic.value.StringValue
REMARK  99  MacroMolecule created from Mol2 file
REMARK  99  CHEMBL96627|CHEMBL96627|mol2|1|dock1
REMARK  99  PROTEIN
REMARK  99  USER_CHARGES
REMARK  99  
REMARK  99  

@<SCITEGIC>ATOM_PROPERTY
Formal Charge
SciTegic.value.StringValue
1 0
2 0
3 0
4 0
5 0
6 0
7 0
8 0
9 0
10 0
11 0
12 0
13 0
14 0
15 0
16 0
17 0
18 0
19 0
20 0
21 0
22 0
23 0
24 0
25 0
26 0
27 0
28 0
29 0
30 0
31 0
32 0
33 0
34 0
35 0
36 0

@<SCITEGIC>ATOM_PROPERTY
pdb_tempFactor
SciTegic.value.DoubleValue
1 0.00
2 0.00
3 0.00
4 0.00
5 0.00
6 0.00
7 0.00
8 0.00
9 0.00
10 0.00
11 0.00
12 0.00
13 0.00
14 0.00
15 0.00
16 0.00
17 0.00
18 0.00
19 0.00
20 0.00
21 0.00
22 0.00
23 0.00
24 0.00
25 0.00
26 0.00
27 0.00
28 0.00
29 0.00
30 0.00
31 0.00
32 0.00
33 0.00
34 0.00
35 0.00
36 0.00

@<SCITEGIC>ATOM_PROPERTY
pdb_occupancy
SciTegic.value.DoubleValue
1 1.00
2 1.00
3 1.00
4 1.00
5 1.00
6 1.00
7 1.00
8 1.00
9 1.00
10 1.00
11 1.00
12 1.00
13 1.00
14 1.00
15 1.00
16 1.00
17 1.00
18 1.00
19 1.00
20 1.00
21 1.00
22 1.00
23 1.00
24 1.00
25 1.00
26 1.00
27 1.00
28 1.00
29 1.00
30 1.00
31 1.00
32 1.00
33 1.00
34 1.00
35 1.00
36 1.00

