#	Created by:	Discovery Studio
#	Creation time:	2018-10-05T09:03:16Z

@<TRIPOS>MOLECULE
CHEMBL91980
   30    32     1 0 0
PROTEIN
USER_CHARGES


@<TRIPOS>ATOM
      1 N1           19.163588    0.297502   53.375070 N.pl3    1 UNK       -0.9000
      2 C2           20.347876    0.218890   53.626169 C.ar     1 UNK        0.1000
      3 C3           21.204802    1.066749   53.054882 C.ar     1 UNK       -0.1500
      4 C4           22.549549    0.958792   53.355551 C.ar     1 UNK       -0.1500
      5 C5           22.925273    0.020268   54.195624 C.ar     1 UNK        0.0000
      6 C6           24.225197   -0.091254   54.492172 C.2      1 UNK        0.4100
      7 N7           25.085707    0.851411   53.842540 N.pl3    1 UNK       -0.6000
      8 C8           26.515686    0.792805   53.964100 C.ar     1 UNK        0.1000
      9 C9           27.235928    1.916381   54.080888 C.ar     1 UNK       -0.1500
     10 C10          28.699112    1.841554   54.204632 C.ar     1 UNK       -0.1500
     11 C11          29.311982    0.660700   54.201041 C.ar     1 UNK       -0.1500
     12 C12          28.545544   -0.562388   54.075565 C.ar     1 UNK        0.0810
     13 I13          29.469410   -2.404080   54.067289 I        1 UNK       -0.0810
     14 C14          27.222621   -0.507568   53.963085 C.ar     1 UNK       -0.1500
     15 N15          24.581642   -1.007291   55.310316 N.2      1 UNK       -0.6200
     16 C16          23.536224   -1.898470   55.888115 C.2      1 UNK        0.4700
     17 N17          22.328728   -1.767585   55.590003 N.2      1 UNK       -0.6200
     18 C18          21.987113   -0.864722   54.784997 C.ar     1 UNK        0.3100
     19 C19          20.738204   -0.765987   54.507094 C.ar     1 UNK       -0.1500
     20 H1           18.841493    0.971518   52.763676 H        1 UNK        0.4000
     21 H2           18.401999   -0.339818   53.786176 H        1 UNK        0.4000
     22 H3           20.888058    1.817040   52.380861 H        1 UNK        0.1500
     23 H4           23.251150    1.614574   52.919792 H        1 UNK        0.1500
     24 H5           24.626002    1.589225   53.272152 H        1 UNK        0.4000
     25 H6           26.763152    2.868092   54.085586 H        1 UNK        0.1500
     26 H7           29.274862    2.734105   54.297663 H        1 UNK        0.1500
     27 H8           30.345303    0.614242   54.288746 H        1 UNK        0.1500
     28 H9           26.665132   -1.419700   53.870697 H        1 UNK        0.1500
     29 H10          23.825240   -2.693734   56.595320 H        1 UNK        0.1500
     30 H11          20.045216   -1.431921   54.952613 H        1 UNK        0.1500
@<TRIPOS>BOND
     1    1    2 1
     2    2    3 ar
     3    3    4 ar
     4    4    5 ar
     5    5    6 1
     6    6    7 1
     7    7    8 1
     8    8    9 ar
     9    9   10 ar
    10   10   11 ar
    11   11   12 ar
    12   12   13 1
    13   12   14 ar
    14    8   14 ar
    15    6   15 2
    16   15   16 1
    17   16   17 2
    18   17   18 1
    19    5   18 ar
    20   18   19 ar
    21    2   19 ar
    22    1   20 1
    23    1   21 1
    24    3   22 1
    25    4   23 1
    26    7   24 1
    27    9   25 1
    28   10   26 1
    29   11   27 1
    30   14   28 1
    31   16   29 1
    32   19   30 1
@<TRIPOS>SUBSTRUCTURE
1 UNK 1 RESIDUE 1 _ UNK
@<SCITEGIC>MOL_PROPERTY
TRIPOS_COMMENT
SciTegic.value.StringValue
> <Gold.Version>
5.3.0
> <Gold.Id.Protein>
1M17_traj_1ns_WTavg_model_1|1M17_traj_1ns_WTavg_5Awater_forGold_Pro|mol2
> <Gold.Protein.ActiveResidues>
LEU718  ALA743  CYS775  THR790  GLN791  LEU792  MET793  PRO794  GLY796  LEU844
THR854
> <Gold.Score>
Fitness  S(hb_ext) S(vdw_ext)  S(hb_int)    S(int)      intcor
51.76       1.48      36.74       0.00      -0.24     -31.09
> <Gold.Goldscore.Fitness>
51.7560
> <Gold.Goldscore.Internal.Vdw>
-28.3386
> <Gold.Goldscore.Internal.Torsion>
-2.9910
> <Gold.Goldscore.External.Vdw>
36.7406
> <Gold.Goldscore.Internal.HBond>
0.0000
> <Gold.Goldscore.External.HBond>
1.4760
> <Gold.Goldscore.Internal.Correction>
-31.0912
> <Gold.Goldscore.Reference.RMSD>
6.3413
> <Gold.Goldscore.Hbonds>
donor molecule, donor type, donor heavy atom, donor atom, acceptor molecule, acceptor atom, score
P1  H  1548  1549       L1    17  0.74
> <Gold.Goldscore.Internal.Vdw.Weighted>
-28.3386
> <Gold.Goldscore.Internal.Torsion.Weighted>
-2.9910
> <Gold.Goldscore.External.Vdw.Weighted>
50.5183
> <Gold.Goldscore.Internal.HBond.Weighted>
0.0000
> <Gold.Goldscore.External.HBond.Weighted>
1.4760
> <Gold.Goldscore.Internal.Correction.Weighted>
-31.0912
> <Gold.Reference.RMSD>
6.3413

@<SCITEGIC>MOL_PROPERTY
REMARK99
SciTegic.value.StringValue
REMARK  99  MacroMolecule created from Mol2 file
REMARK  99  CHEMBL91980|CHEMBL91980|mol2|1|dock2
REMARK  99  PROTEIN
REMARK  99  USER_CHARGES
REMARK  99  
REMARK  99  

@<SCITEGIC>ATOM_PROPERTY
Formal Charge
SciTegic.value.StringValue
1 0
2 0
3 0
4 0
5 0
6 0
7 0
8 0
9 0
10 0
11 0
12 0
13 0
14 0
15 0
16 0
17 0
18 0
19 0
20 0
21 0
22 0
23 0
24 0
25 0
26 0
27 0
28 0
29 0
30 0

@<SCITEGIC>ATOM_PROPERTY
pdb_tempFactor
SciTegic.value.DoubleValue
1 0.00
2 0.00
3 0.00
4 0.00
5 0.00
6 0.00
7 0.00
8 0.00
9 0.00
10 0.00
11 0.00
12 0.00
13 0.00
14 0.00
15 0.00
16 0.00
17 0.00
18 0.00
19 0.00
20 0.00
21 0.00
22 0.00
23 0.00
24 0.00
25 0.00
26 0.00
27 0.00
28 0.00
29 0.00
30 0.00

@<SCITEGIC>ATOM_PROPERTY
pdb_occupancy
SciTegic.value.DoubleValue
1 1.00
2 1.00
3 1.00
4 1.00
5 1.00
6 1.00
7 1.00
8 1.00
9 1.00
10 1.00
11 1.00
12 1.00
13 1.00
14 1.00
15 1.00
16 1.00
17 1.00
18 1.00
19 1.00
20 1.00
21 1.00
22 1.00
23 1.00
24 1.00
25 1.00
26 1.00
27 1.00
28 1.00
29 1.00
30 1.00

