#	Created by:	Discovery Studio
#	Creation time:	2018-10-04T10:04:12Z

@<TRIPOS>MOLECULE
CHEMBL553
   52    54     1 0 0
PROTEIN
USER_CHARGES


@<TRIPOS>ATOM
      1 C1           29.000740   -3.363620   53.265540 C.1      1 MOL1002   -0.1147
      2 C2           28.827990   -2.182530   53.475250 C.1      1 MOL1002   -0.0704
      3 C3           28.440510   -0.816550   53.714370 C.ar     1 MOL1002    0.0263
      4 C4           27.070120   -0.576920   53.855430 C.ar     1 MOL1002   -0.0229
      5 C5           26.590680    0.720350   54.039540 C.ar     1 MOL1002    0.0408
      6 N1           25.199720    0.968500   54.106050 N.pl3    1 MOL1002   -0.3396
      7 C6           24.309170    0.112300   54.643060 C.ar     1 MOL1002    0.1413
      8 C7           22.918660    0.119090   54.238300 C.ar     1 MOL1002    0.0458
      9 C8           22.328210    1.081550   53.385800 C.ar     1 MOL1002   -0.0159
     10 C9           21.024650    0.928470   52.973330 C.ar     1 MOL1002    0.1062
     11 O1           20.378380    1.828000   52.171550 O.3      1 MOL1002   -0.3409
     12 C10          20.615570    3.208100   52.431630 C.3      1 MOL1002    0.0768
     13 C11          19.588930    3.989310   51.644370 C.3      1 MOL1002    0.0702
     14 O2           18.308510    3.712410   52.154170 O.3      1 MOL1002   -0.3823
     15 C12          17.284600    4.357060   51.421740 C.3      1 MOL1002    0.0356
     16 C13          20.262290   -0.218270   53.362250 C.ar     1 MOL1002    0.1075
     17 O3           19.004210   -0.311890   52.849640 O.3      1 MOL1002   -0.3409
     18 C14          18.180430   -1.386520   53.320720 C.3      1 MOL1002    0.0768
     19 C15          16.760790   -1.163530   52.854290 C.3      1 MOL1002    0.0702
     20 O4           16.268620   -0.035010   53.522400 O.3      1 MOL1002   -0.3823
     21 C16          14.881450    0.165040   53.330240 C.3      1 MOL1002    0.0356
     22 C17          20.819450   -1.134380   54.222450 C.ar     1 MOL1002   -0.0025
     23 C18          22.143530   -0.967250   54.688590 C.ar     1 MOL1002    0.0786
     24 N2           22.630600   -1.886250   55.581760 N.ar     1 MOL1002   -0.2361
     25 C19          23.872940   -1.706410   55.973530 C.ar     1 MOL1002    0.1181
     26 N3           24.741490   -0.784250   55.535270 N.ar     1 MOL1002   -0.2186
     27 C20          27.481730    1.794780   54.030030 C.ar     1 MOL1002   -0.0385
     28 C21          28.846440    1.555660   53.876090 C.ar     1 MOL1002   -0.0590
     29 C22          29.341050    0.260790   53.734300 C.ar     1 MOL1002   -0.0464
     30 H1           29.121660   -4.373520   52.926310 H        1 MOL1002    0.1242
     31 H2           26.383130   -1.412270   53.795470 H        1 MOL1002    0.0658
     32 H3           24.896180    1.857150   53.657970 H        1 MOL1002    0.1681
     33 H4           22.901930    1.949250   53.064590 H        1 MOL1002    0.0660
     34 H5           20.498670    3.393170   53.507100 H        1 MOL1002    0.0597
     35 H6           21.628410    3.501110   52.126560 H        1 MOL1002    0.0597
     36 H7           19.818080    5.064890   51.714160 H        1 MOL1002    0.0591
     37 H8           19.641170    3.705710   50.580640 H        1 MOL1002    0.0591
     38 H9           16.334550    4.040940   51.849670 H        1 MOL1002    0.0530
     39 H10          17.306760    4.046980   50.370480 H        1 MOL1002    0.0530
     40 H11          17.393280    5.449600   51.489020 H        1 MOL1002    0.0530
     41 H12          18.569660   -2.339230   52.938440 H        1 MOL1002    0.0597
     42 H13          18.193420   -1.397670   54.414550 H        1 MOL1002    0.0597
     43 H14          16.702280   -1.012820   51.765770 H        1 MOL1002    0.0591
     44 H15          16.174250   -2.056760   53.122530 H        1 MOL1002    0.0591
     45 H16          14.657580    0.290010   52.264070 H        1 MOL1002    0.0530
     46 H17          14.624390    1.088540   53.858970 H        1 MOL1002    0.0530
     47 H18          14.317940   -0.673870   53.757210 H        1 MOL1002    0.0530
     48 H19          20.257060   -1.982310   54.592800 H        1 MOL1002    0.0675
     49 H20          24.248030   -2.384650   56.732980 H        1 MOL1002    0.1063
     50 H21          27.111840    2.812570   54.144290 H        1 MOL1002    0.0645
     51 H22          29.527980    2.400100   53.858310 H        1 MOL1002    0.0624
     52 H23          30.408280    0.093940   53.619290 H        1 MOL1002    0.0636
@<TRIPOS>BOND
     1    1   30 1
     2    1    2 3
     3    2    3 1
     4    3    4 ar
     5    3   29 ar
     6    4    5 ar
     7    4   31 1
     8    5    6 1
     9    5   27 ar
    10    6    7 1
    11    6   32 1
    12    7    8 ar
    13    7   26 ar
    14    8   23 ar
    15    8    9 ar
    16    9   10 ar
    17    9   33 1
    18   10   11 1
    19   10   16 ar
    20   11   12 1
    21   12   35 1
    22   12   13 1
    23   12   34 1
    24   13   14 1
    25   13   36 1
    26   13   37 1
    27   14   15 1
    28   15   40 1
    29   15   39 1
    30   15   38 1
    31   16   22 ar
    32   16   17 1
    33   17   18 1
    34   18   41 1
    35   18   42 1
    36   18   19 1
    37   19   44 1
    38   19   20 1
    39   19   43 1
    40   20   21 1
    41   21   47 1
    42   21   46 1
    43   21   45 1
    44   22   23 ar
    45   22   48 1
    46   23   24 ar
    47   24   25 ar
    48   25   26 ar
    49   25   49 1
    50   27   28 ar
    51   27   50 1
    52   28   29 ar
    53   28   51 1
    54   29   52 1
@<TRIPOS>SUBSTRUCTURE
1 AQ4999 1 RESIDUE 1 B MOL
@<SCITEGIC>MOL_PROPERTY
__PDBRemarks__
SciTegic.value.StringValue
TITLE     Protein in water
REMARK    THIS IS A SIMULATION BOX
CRYST1   97.837   97.837   97.837  90.00  90.00  90.00 P 1           1

@<SCITEGIC>MOL_PROPERTY
RMSD_CA_1M17_insert_addH_modelledHis_Cap
SciTegic.value.DoubleValue
0.441478

@<SCITEGIC>MOL_PROPERTY
Clean Energy
SciTegic.value.DoubleValue
25.911879

@<SCITEGIC>MOL_PROPERTY
Protein Sequence
SciTegic.value.StringValue
LVAIKEMLITQLMPCLTDFG

@<SCITEGIC>MOL_PROPERTY
Secondary Structure
SciTegic.value.StringValue
CCCCCCCCCCCCCCTTTTCC

@<SCITEGIC>ATOM_PROPERTY
Formal Charge
SciTegic.value.StringValue
1 0
2 0
3 0
4 0
5 0
6 0
7 0
8 0
9 0
10 0
11 0
12 0
13 0
14 0
15 0
16 0
17 0
18 0
19 0
20 0
21 0
22 0
23 0
24 0
25 0
26 0
27 0
28 0
29 0
30 0
31 0
32 0
33 0
34 0
35 0
36 0
37 0
38 0
39 0
40 0
41 0
42 0
43 0
44 0
45 0
46 0
47 0
48 0
49 0
50 0
51 0
52 0

@<SCITEGIC>ATOM_PROPERTY
pdb_tempFactor
SciTegic.value.DoubleValue
1 0.00
2 0.00
3 0.00
4 0.00
5 0.00
6 0.00
7 0.00
8 0.00
9 0.00
10 0.00
11 0.00
12 0.00
13 0.00
14 0.00
15 0.00
16 0.00
17 0.00
18 0.00
19 0.00
20 0.00
21 0.00
22 0.00
23 0.00
24 0.00
25 0.00
26 0.00
27 0.00
28 0.00
29 0.00
30 0.00
31 0.00
32 0.00
33 0.00
34 0.00
35 0.00
36 0.00
37 0.00
38 0.00
39 0.00
40 0.00
41 0.00
42 0.00
43 0.00
44 0.00
45 0.00
46 0.00
47 0.00
48 0.00
49 0.00
50 0.00
51 0.00
52 0.00

@<SCITEGIC>ATOM_PROPERTY
pdb_occupancy
SciTegic.value.DoubleValue
1 1.00
2 1.00
3 1.00
4 1.00
5 1.00
6 1.00
7 1.00
8 1.00
9 1.00
10 1.00
11 1.00
12 1.00
13 1.00
14 1.00
15 1.00
16 1.00
17 1.00
18 1.00
19 1.00
20 1.00
21 1.00
22 1.00
23 1.00
24 1.00
25 1.00
26 1.00
27 1.00
28 1.00
29 1.00
30 1.00
31 1.00
32 1.00
33 1.00
34 1.00
35 1.00
36 1.00
37 1.00
38 1.00
39 1.00
40 1.00
41 1.00
42 1.00
43 1.00
44 1.00
45 1.00
46 1.00
47 1.00
48 1.00
49 1.00
50 1.00
51 1.00
52 1.00

