#	Created by:	Discovery Studio
#	Creation time:	2018-10-05T09:09:10Z

@<TRIPOS>MOLECULE
CHEMBL116308
   29    31     1 0 0
PROTEIN
USER_CHARGES


@<TRIPOS>ATOM
      1 N2           23.316397    2.389226   53.138089 N.2      1 UNK        0.9070
      2 O3           24.481008    2.433989   53.492746 O.2      1 UNK       -0.5200
      3 C4           22.462154    1.219629   53.544268 C.2      1 UNK        0.1330
      4 C5           21.195023    1.280831   53.160287 C.2      1 UNK       -0.1500
      5 C6           20.186762    0.236464   53.470419 C.2      1 UNK       -0.1500
      6 C7           20.517665   -0.849041   54.181254 C.2      1 UNK       -0.1500
      7 C8           21.931446   -1.019964   54.654858 C.ar     1 UNK        0.3100
      8 N9           22.230665   -2.120424   55.340424 N.ar     1 UNK       -0.6200
      9 C10          23.465140   -2.380391   55.786776 C.ar     1 UNK        0.4700
     10 N11          24.425365   -1.478641   55.496043 N.ar     1 UNK       -0.6200
     11 C12          24.220350   -0.335579   54.819988 C.ar     1 UNK        0.4100
     12 N13          25.333330    0.602130   54.547453 N.pl3    1 UNK       -0.6000
     13 C14          26.762456    0.275590   54.438878 C.ar     1 UNK        0.1000
     14 C15          27.563141    1.385013   54.171274 C.ar     1 UNK       -0.1500
     15 C16          28.929633    1.264284   53.992662 C.ar     1 UNK       -0.1500
     16 C17          29.524027    0.017817   54.073708 C.ar     1 UNK       -0.1500
     17 C18          28.759094   -1.106506   54.341496 C.ar     1 UNK        0.1110
     18 Br19         29.692550   -2.808661   54.419559 Br       1 UNK       -0.1110
     19 C20          27.371902   -0.993485   54.534087 C.ar     1 UNK       -0.1500
     20 C21          22.914054   -0.060133   54.370370 C.ar     1 UNK        0.0000
     21 H1           20.914536    2.089284   52.631584 H        1 UNK        0.1500
     22 H2           19.162798    0.369361   53.110240 H        1 UNK        0.1500
     23 H3           19.739223   -1.636234   54.410505 H        1 UNK        0.1500
     24 H4           23.676554   -3.294968   56.350410 H        1 UNK        0.1500
     25 H5           25.090106    1.602211   54.307558 H        1 UNK        0.4000
     26 H6           27.127016    2.348650   54.094172 H        1 UNK        0.1500
     27 H7           29.512372    2.123990   53.786505 H        1 UNK        0.1500
     28 H8           30.556465   -0.079188   53.929881 H        1 UNK        0.1500
     29 H9           26.801864   -1.889854   54.738839 H        1 UNK        0.1500
@<TRIPOS>BOND
     1    1    2 2
     2    1    3 1
     3    3    4 2
     4    4    5 1
     5    5    6 2
     6    6    7 1
     7    7    8 ar
     8    8    9 ar
     9    9   10 ar
    10   10   11 ar
    11   11   12 1
    12   12   13 1
    13   13   14 ar
    14   14   15 ar
    15   15   16 ar
    16   16   17 ar
    17   17   18 1
    18   17   19 ar
    19   13   19 ar
    20   11   20 ar
    21    3   20 1
    22    7   20 ar
    23    4   21 1
    24    5   22 1
    25    6   23 1
    26    9   24 1
    27   12   25 1
    28   14   26 1
    29   15   27 1
    30   16   28 1
    31   19   29 1
@<TRIPOS>SUBSTRUCTURE
1 UNK 1 RESIDUE 1 _ UNK
@<SCITEGIC>MOL_PROPERTY
TRIPOS_COMMENT
SciTegic.value.StringValue
> <Gold.Version>
5.3.0
> <Gold.Id.Protein>
1M17_traj_1ns_WTavg_model_1|1M17_traj_1ns_WTavg_5Awater_forGold_Pro|mol2
> <Gold.Protein.ActiveResidues>
LEU718  ALA743  CYS775  THR790  GLN791  LEU792  MET793  PRO794  GLY796  LEU844
THR854
> <Gold.Score>
Fitness  S(hb_ext) S(vdw_ext)  S(hb_int)    S(int)      intcor
44.97       1.14      33.60       0.00      -2.36      -9.60
> <Gold.Goldscore.Fitness>
44.9681
> <Gold.Goldscore.Internal.Vdw>
-2.8345
> <Gold.Goldscore.Internal.Torsion>
-9.1278
> <Gold.Goldscore.External.Vdw>
33.5968
> <Gold.Goldscore.Internal.HBond>
0.0000
> <Gold.Goldscore.External.HBond>
1.1365
> <Gold.Goldscore.Internal.Correction>
-9.5982
> <Gold.Goldscore.Reference.RMSD>
7.2784
> <Gold.Goldscore.Hbonds>
donor molecule, donor type, donor heavy atom, donor atom, acceptor molecule, acceptor atom, score
P1  H  1548  1549       L1     1  0.57
> <Gold.Goldscore.Internal.Vdw.Weighted>
-2.8345
> <Gold.Goldscore.Internal.Torsion.Weighted>
-9.1278
> <Gold.Goldscore.External.Vdw.Weighted>
46.1956
> <Gold.Goldscore.Internal.HBond.Weighted>
0.0000
> <Gold.Goldscore.External.HBond.Weighted>
1.1365
> <Gold.Goldscore.Internal.Correction.Weighted>
-9.5982
> <Gold.Reference.RMSD>
7.2784

@<SCITEGIC>MOL_PROPERTY
REMARK99
SciTegic.value.StringValue
REMARK  99  MacroMolecule created from Mol2 file
REMARK  99  CHEMBL116308|CHEMBL116308|mol2|1|dock7
REMARK  99  PROTEIN
REMARK  99  USER_CHARGES
REMARK  99  
REMARK  99  

@<SCITEGIC>MOL_PROPERTY
Clean Energy
SciTegic.value.DoubleValue
26.954376

@<SCITEGIC>ATOM_PROPERTY
Formal Charge
SciTegic.value.StringValue
1 0
2 0
3 0
4 0
5 0
6 0
7 0
8 0
9 0
10 0
11 0
12 0
13 0
14 0
15 0
16 0
17 0
18 0
19 0
20 0
21 0
22 0
23 0
24 0
25 0
26 0
27 0
28 0
29 0

@<SCITEGIC>ATOM_PROPERTY
pdb_tempFactor
SciTegic.value.DoubleValue
1 0.00
2 0.00
3 0.00
4 0.00
5 0.00
6 0.00
7 0.00
8 0.00
9 0.00
10 0.00
11 0.00
12 0.00
13 0.00
14 0.00
15 0.00
16 0.00
17 0.00
18 0.00
19 0.00
20 0.00
21 0.00
22 0.00
23 0.00
24 0.00
25 0.00
26 0.00
27 0.00
28 0.00
29 0.00

@<SCITEGIC>ATOM_PROPERTY
pdb_occupancy
SciTegic.value.DoubleValue
1 1.00
2 1.00
3 1.00
4 1.00
5 1.00
6 1.00
7 1.00
8 1.00
9 1.00
10 1.00
11 1.00
12 1.00
13 1.00
14 1.00
15 1.00
16 1.00
17 1.00
18 1.00
19 1.00
20 1.00
21 1.00
22 1.00
23 1.00
24 1.00
25 1.00
26 1.00
27 1.00
28 1.00
29 1.00

