#	Created by:	Discovery Studio
#	Creation time:	2018-10-05T09:11:33Z

@<TRIPOS>MOLECULE
CHEMBL554566
   40    42     1 0 0
PROTEIN
USER_CHARGES


@<TRIPOS>ATOM
      1 C1           25.269665    1.861542   52.564923 C.3      1 UNK        0.3691
      2 N2           25.584980    0.867137   53.545966 N.pl3    1 UNK       -0.5691
      3 C3           27.023688    0.624587   53.810858 C.ar     1 UNK        0.1000
      4 C4           27.790718    1.650672   54.232415 C.ar     1 UNK       -0.1500
      5 C5           29.190782    1.471953   54.494117 C.ar     1 UNK       -0.1500
      6 C6           29.757554    0.291651   54.327042 C.ar     1 UNK       -0.1500
      7 C7           28.995927   -0.847452   53.883104 C.ar     1 UNK       -0.1435
      8 C8           29.743279   -2.160878   53.722531 C.3      1 UNK        0.1435
      9 C9           27.689051   -0.719468   53.630322 C.ar     1 UNK       -0.1500
     10 C10          24.464259    0.095267   54.250785 C.2      1 UNK        0.4100
     11 N11          24.831319   -0.758782   55.124509 N.2      1 UNK       -0.6200
     12 C12          23.900012   -1.557394   55.844035 C.2      1 UNK        0.4700
     13 N13          22.654129   -1.474513   55.658043 N.2      1 UNK       -0.6200
     14 C14          22.066539   -0.665836   54.815087 C.ar     1 UNK        0.3100
     15 C15          20.736472   -0.695803   54.736218 C.ar     1 UNK       -0.1500
     16 C16          20.036352    0.166870   53.839477 C.ar     1 UNK       -0.1435
     17 C17          18.511073    0.061206   53.804683 C.3      1 UNK        0.1435
     18 C18          20.755705    1.011426   53.087918 C.ar     1 UNK       -0.1435
     19 C19          20.132900    1.944931   52.125032 C.3      1 UNK        0.1435
     20 C20          22.223782    1.032399   53.193830 C.ar     1 UNK       -0.1500
     21 C21          22.880544    0.212754   54.026111 C.ar     1 UNK        0.0000
     22 H1           24.715568    1.476825   51.754582 H        1 UNK        0.0000
     23 H2           26.195840    2.304713   52.175651 H        1 UNK        0.0000
     24 H3           24.697015    2.664583   53.053849 H        1 UNK        0.0000
     25 H4           27.380735    2.620380   54.379163 H        1 UNK        0.1500
     26 H5           29.773712    2.296222   54.821987 H        1 UNK        0.1500
     27 H6           30.762890    0.182798   54.517642 H        1 UNK        0.1500
     28 H7           29.107140   -2.916104   53.238775 H        1 UNK        0.0000
     29 H8           30.077769   -2.501656   54.712507 H        1 UNK        0.0000
     30 H9           30.653065   -1.979020   53.132674 H        1 UNK        0.0000
     31 H10          27.123778   -1.566671   53.299671 H        1 UNK        0.1500
     32 H11          24.255624   -2.255057   56.562304 H        1 UNK        0.1500
     33 H12          20.181633   -1.371229   55.349429 H        1 UNK        0.1500
     34 H13          18.090610   -0.489983   54.650516 H        1 UNK        0.0000
     35 H14          18.221850   -0.416051   52.858058 H        1 UNK        0.0000
     36 H15          18.096226    1.078376   53.766207 H        1 UNK        0.0000
     37 H16          19.764658    2.843130   52.640289 H        1 UNK        0.0000
     38 H17          19.313085    1.429871   51.604105 H        1 UNK        0.0000
     39 H18          20.873656    2.213102   51.356542 H        1 UNK        0.0000
     40 H19          22.749076    1.702992   52.593963 H        1 UNK        0.1500
@<TRIPOS>BOND
     1    1    2 1
     2    2    3 1
     3    3    4 ar
     4    4    5 ar
     5    5    6 ar
     6    6    7 ar
     7    7    8 1
     8    7    9 ar
     9    3    9 ar
    10    2   10 1
    11   10   11 2
    12   11   12 1
    13   12   13 2
    14   13   14 1
    15   14   15 ar
    16   15   16 ar
    17   16   17 1
    18   16   18 ar
    19   18   19 1
    20   18   20 ar
    21   20   21 ar
    22   10   21 1
    23   14   21 ar
    24    1   22 1
    25    1   23 1
    26    1   24 1
    27    4   25 1
    28    5   26 1
    29    6   27 1
    30    8   28 1
    31    8   29 1
    32    8   30 1
    33    9   31 1
    34   12   32 1
    35   15   33 1
    36   17   34 1
    37   17   35 1
    38   17   36 1
    39   19   37 1
    40   19   38 1
    41   19   39 1
    42   20   40 1
@<TRIPOS>SUBSTRUCTURE
1 UNK 1 RESIDUE 1 _ UNK
@<SCITEGIC>MOL_PROPERTY
TRIPOS_COMMENT
SciTegic.value.StringValue
> <Gold.Version>
5.3.0
> <Gold.Id.Protein>
1M17_traj_1ns_WTavg_model_1|1M17_traj_1ns_WTavg_5Awater_forGold_Pro|mol2
> <Gold.Protein.ActiveResidues>
LEU718  ALA743  CYS775  THR790  GLN791  LEU792  MET793  PRO794  GLY796  LEU844
THR854
> <Gold.Score>
Fitness  S(hb_ext) S(vdw_ext)  S(hb_int)    S(int)      intcor
53.52       1.84      39.45       0.00      -2.57      -7.73
> <Gold.Goldscore.Fitness>
53.5188
> <Gold.Goldscore.Internal.Vdw>
-3.3465
> <Gold.Goldscore.Internal.Torsion>
-6.9569
> <Gold.Goldscore.External.Vdw>
39.4545
> <Gold.Goldscore.Internal.HBond>
0.0000
> <Gold.Goldscore.External.HBond>
1.8397
> <Gold.Goldscore.Internal.Correction>
-7.7326
> <Gold.Goldscore.Reference.RMSD>
5.3552
> <Gold.Goldscore.Hbonds>
donor molecule, donor type, donor heavy atom, donor atom, acceptor molecule, acceptor atom, score
P1  H  1548  1549       L1    13  0.92
> <Gold.Goldscore.Internal.Vdw.Weighted>
-3.3465
> <Gold.Goldscore.Internal.Torsion.Weighted>
-6.9569
> <Gold.Goldscore.External.Vdw.Weighted>
54.2499
> <Gold.Goldscore.Internal.HBond.Weighted>
0.0000
> <Gold.Goldscore.External.HBond.Weighted>
1.8397
> <Gold.Goldscore.Internal.Correction.Weighted>
-7.7326
> <Gold.Reference.RMSD>
5.3552

@<SCITEGIC>MOL_PROPERTY
REMARK99
SciTegic.value.StringValue
REMARK  99  MacroMolecule created from Mol2 file
REMARK  99  CHEMBL554566|CHEMBL554566|mol2|1|dock2
REMARK  99  PROTEIN
REMARK  99  USER_CHARGES
REMARK  99  
REMARK  99  

@<SCITEGIC>ATOM_PROPERTY
Formal Charge
SciTegic.value.StringValue
1 0
2 0
3 0
4 0
5 0
6 0
7 0
8 0
9 0
10 0
11 0
12 0
13 0
14 0
15 0
16 0
17 0
18 0
19 0
20 0
21 0
22 0
23 0
24 0
25 0
26 0
27 0
28 0
29 0
30 0
31 0
32 0
33 0
34 0
35 0
36 0
37 0
38 0
39 0
40 0

@<SCITEGIC>ATOM_PROPERTY
pdb_tempFactor
SciTegic.value.DoubleValue
1 0.00
2 0.00
3 0.00
4 0.00
5 0.00
6 0.00
7 0.00
8 0.00
9 0.00
10 0.00
11 0.00
12 0.00
13 0.00
14 0.00
15 0.00
16 0.00
17 0.00
18 0.00
19 0.00
20 0.00
21 0.00
22 0.00
23 0.00
24 0.00
25 0.00
26 0.00
27 0.00
28 0.00
29 0.00
30 0.00
31 0.00
32 0.00
33 0.00
34 0.00
35 0.00
36 0.00
37 0.00
38 0.00
39 0.00
40 0.00

@<SCITEGIC>ATOM_PROPERTY
pdb_occupancy
SciTegic.value.DoubleValue
1 1.00
2 1.00
3 1.00
4 1.00
5 1.00
6 1.00
7 1.00
8 1.00
9 1.00
10 1.00
11 1.00
12 1.00
13 1.00
14 1.00
15 1.00
16 1.00
17 1.00
18 1.00
19 1.00
20 1.00
21 1.00
22 1.00
23 1.00
24 1.00
25 1.00
26 1.00
27 1.00
28 1.00
29 1.00
30 1.00
31 1.00
32 1.00
33 1.00
34 1.00
35 1.00
36 1.00
37 1.00
38 1.00
39 1.00
40 1.00

