#	Created by:	Discovery Studio
#	Creation time:	2018-10-03T22:32:43Z

@<TRIPOS>MOLECULE
CHEMBL1688539|CHEMBL1688539|mol2|1|dock1
   28    30     1 0 0
PROTEIN
USER_CHARGES


@<TRIPOS>ATOM
      1 F1           31.010328   -0.142360   54.746185 F        1 UNK       -0.1900
      2 C2           29.679363    0.138423   54.586319 C.ar     1 UNK        0.1900
      3 C3           29.177816    1.260365   55.070074 C.ar     1 UNK       -0.1500
      4 C4           27.684542    1.558951   54.881850 C.ar     1 UNK       -0.1500
      5 C5           26.880790    0.681471   54.224797 C.ar     1 UNK        0.1000
      6 N6           25.386321    0.874036   53.979557 N.pl3    1 UNK       -0.6000
      7 C7           24.384885   -0.045063   54.512643 C.2      1 UNK        0.4100
      8 N8           24.745836   -0.962965   55.320641 N.2      1 UNK       -0.6200
      9 C9           23.748309   -1.929710   55.892730 C.2      1 UNK        0.4700
     10 N10          22.506947   -1.849257   55.576795 N.2      1 UNK       -0.6200
     11 C11          22.025942   -0.889312   54.710839 C.ar     1 UNK        0.3100
     12 C12          20.724951   -0.830542   54.400155 C.ar     1 UNK       -0.1500
     13 C13          20.239328    0.204808   53.472887 C.ar     1 UNK       -0.1500
     14 C14          21.121523    1.064757   52.963038 C.ar     1 UNK       -0.1500
     15 C15          22.537026    0.991405   53.308494 C.ar     1 UNK       -0.1500
     16 C16          22.967215    0.057308   54.143561 C.ar     1 UNK        0.0000
     17 C17          27.515065   -0.558976   53.708413 C.ar     1 UNK       -0.1500
     18 C18          28.816245   -0.796796   53.884451 C.ar     1 UNK        0.1770
     19 Cl19         29.502996   -2.257312   53.262583 Cl       1 UNK       -0.1770
     20 H1           29.865257    1.943229   55.595950 H        1 UNK        0.1500
     21 H2           27.282308    2.460327   55.270748 H        1 UNK        0.1500
     22 H3           25.094664    1.697100   53.409036 H        1 UNK        0.4000
     23 H4           24.063628   -2.710953   56.582133 H        1 UNK        0.1500
     24 H5           20.046383   -1.525520   54.819235 H        1 UNK        0.1500
     25 H6           19.163376    0.273318   53.200004 H        1 UNK        0.1500
     26 H7           20.811046    1.789182   52.320118 H        1 UNK        0.1500
     27 H8           23.212936    1.681257   52.892995 H        1 UNK        0.1500
     28 H9           26.935004   -1.277807   53.188372 H        1 UNK        0.1500
@<TRIPOS>BOND
     1    1    2 1
     2    2    3 ar
     3    3    4 ar
     4    4    5 ar
     5    5    6 1
     6    6    7 1
     7    7    8 2
     8    8    9 1
     9    9   10 2
    10   10   11 1
    11   11   12 ar
    12   12   13 ar
    13   13   14 ar
    14   14   15 ar
    15   15   16 ar
    16    7   16 1
    17   11   16 ar
    18    5   17 ar
    19   17   18 ar
    20    2   18 ar
    21   18   19 1
    22    3   20 1
    23    4   21 1
    24    6   22 1
    25    9   23 1
    26   12   24 1
    27   13   25 1
    28   14   26 1
    29   15   27 1
    30   17   28 1
@<TRIPOS>SUBSTRUCTURE
1 UNK 1 RESIDUE 1 _ UNK
@<SCITEGIC>MOL_PROPERTY
TRIPOS_COMMENT
SciTegic.value.StringValue
> <Gold.Version>
5.3.0
> <Gold.Id.Protein>
1M17_traj_1ns_WTavg_model_1|1M17_traj_1ns_WTavg_5Awater_forGold_Pro|mol2
> <Gold.Protein.ActiveResidues>
LEU718  ALA743  CYS775  THR790  GLN791  LEU792  MET793  PRO794  GLY796  LEU844
THR854
> <Gold.Score>
Fitness  S(hb_ext) S(vdw_ext)  S(hb_int)    S(int)      intcor
50.20       1.94      36.99       0.00      -2.60      -8.31
> <Gold.Goldscore.Fitness>
50.2027
> <Gold.Goldscore.Internal.Vdw>
-5.1905
> <Gold.Goldscore.Internal.Torsion>
-5.7226
> <Gold.Goldscore.External.Vdw>
36.9907
> <Gold.Goldscore.Internal.HBond>
0.0000
> <Gold.Goldscore.External.HBond>
1.9404
> <Gold.Goldscore.Internal.Correction>
-8.3132
> <Gold.Goldscore.Reference.RMSD>
6.3390
> <Gold.Goldscore.Hbonds>
donor molecule, donor type, donor heavy atom, donor atom, acceptor molecule, acceptor atom, score
P1  H  1548  1549       L1    10  0.97
> <Gold.Goldscore.Internal.Vdw.Weighted>
-5.1905
> <Gold.Goldscore.Internal.Torsion.Weighted>
-5.7226
> <Gold.Goldscore.External.Vdw.Weighted>
50.8621
> <Gold.Goldscore.Internal.HBond.Weighted>
0.0000
> <Gold.Goldscore.External.HBond.Weighted>
1.9404
> <Gold.Goldscore.Internal.Correction.Weighted>
-8.3132
> <Gold.Reference.RMSD>
6.3390

@<SCITEGIC>MOL_PROPERTY
REMARK99
SciTegic.value.StringValue
REMARK  99  MacroMolecule created from Mol2 file
REMARK  99  CHEMBL1688539|CHEMBL1688539|mol2|1|dock1
REMARK  99  PROTEIN
REMARK  99  USER_CHARGES
REMARK  99  
REMARK  99  

@<SCITEGIC>ATOM_PROPERTY
Formal Charge
SciTegic.value.StringValue
1 0
2 0
3 0
4 0
5 0
6 0
7 0
8 0
9 0
10 0
11 0
12 0
13 0
14 0
15 0
16 0
17 0
18 0
19 0
20 0
21 0
22 0
23 0
24 0
25 0
26 0
27 0
28 0

@<SCITEGIC>ATOM_PROPERTY
pdb_tempFactor
SciTegic.value.DoubleValue
1 0.00
2 0.00
3 0.00
4 0.00
5 0.00
6 0.00
7 0.00
8 0.00
9 0.00
10 0.00
11 0.00
12 0.00
13 0.00
14 0.00
15 0.00
16 0.00
17 0.00
18 0.00
19 0.00
20 0.00
21 0.00
22 0.00
23 0.00
24 0.00
25 0.00
26 0.00
27 0.00
28 0.00

@<SCITEGIC>ATOM_PROPERTY
pdb_occupancy
SciTegic.value.DoubleValue
1 1.00
2 1.00
3 1.00
4 1.00
5 1.00
6 1.00
7 1.00
8 1.00
9 1.00
10 1.00
11 1.00
12 1.00
13 1.00
14 1.00
15 1.00
16 1.00
17 1.00
18 1.00
19 1.00
20 1.00
21 1.00
22 1.00
23 1.00
24 1.00
25 1.00
26 1.00
27 1.00
28 1.00

