#	Created by:	Discovery Studio
#	Creation time:	2018-10-05T09:03:54Z

@<TRIPOS>MOLECULE
CHEMBL90013
   38    40     1 0 0
PROTEIN
USER_CHARGES


@<TRIPOS>ATOM
      1 C1           18.377197   -0.816519   53.134068 C.3      1 UNK        0.3691
      2 N2           19.343304    0.346253   53.189797 N.pl3    1 UNK       -0.8382
      3 C3           18.167692    2.174594   52.196737 C.3      1 UNK        0.3691
      4 C4           20.562957    0.275014   53.493343 C.ar     1 UNK        0.1000
      5 C5           21.473280    1.049514   52.896696 C.ar     1 UNK       -0.1500
      6 C6           22.764336    0.942448   53.249383 C.ar     1 UNK       -0.1500
      7 C7           23.088741    0.075880   54.173023 C.ar     1 UNK        0.0000
      8 C8           24.329689   -0.014746   54.499701 C.2      1 UNK        0.4100
      9 N9           25.220794    0.867648   53.791653 N.pl3    1 UNK       -0.6000
     10 C10          26.652602    0.739667   53.904066 C.ar     1 UNK        0.1000
     11 C11          27.430171    1.782772   54.222173 C.ar     1 UNK       -0.1500
     12 C12          28.890594    1.603558   54.325604 C.ar     1 UNK       -0.1500
     13 C13          29.435805    0.408336   54.103439 C.ar     1 UNK       -0.1500
     14 C14          28.596377   -0.719784   53.759601 C.ar     1 UNK        0.1110
     15 Br15         29.291649   -2.449066   53.429001 Br       1 UNK       -0.1110
     16 C16          27.288585   -0.563463   53.666023 C.ar     1 UNK       -0.1500
     17 N17          24.662622   -0.859038   55.403043 N.2      1 UNK       -0.6200
     18 C18          23.614779   -1.691669   56.031559 C.2      1 UNK        0.4700
     19 N19          22.428616   -1.580867   55.695157 N.2      1 UNK       -0.6200
     20 C20          22.138259   -0.736856   54.800290 C.ar     1 UNK        0.3100
     21 C21          20.918536   -0.641833   54.473184 C.ar     1 UNK       -0.1500
     22 H1           17.775288   -0.947287   54.035537 H        1 UNK        0.0000
     23 H2           18.953978   -1.731748   52.941539 H        1 UNK        0.0000
     24 H3           17.715868   -0.670728   52.268737 H        1 UNK        0.0000
     25 H4           18.452947    3.112491   52.696234 H        1 UNK        0.0000
     26 H5           17.084302    2.005950   52.258070 H        1 UNK        0.0000
     27 H6           18.460406    2.252048   51.143375 H        1 UNK        0.0000
     28 H7           21.216699    1.750766   52.150211 H        1 UNK        0.1500
     29 H8           23.483800    1.542999   52.789154 H        1 UNK        0.1500
     30 H9           24.770383    1.605913   53.191685 H        1 UNK        0.4000
     31 H10          27.012209    2.738836   54.401627 H        1 UNK        0.1500
     32 H11          29.514634    2.431051   54.578653 H        1 UNK        0.1500
     33 H12          30.460578    0.285282   54.176701 H        1 UNK        0.1500
     34 H13          26.688231   -1.410053   53.410846 H        1 UNK        0.1500
     35 H14          23.885120   -2.423986   56.811568 H        1 UNK        0.1500
     36 H15          20.218525   -1.259341   54.953909 H        1 UNK        0.1500
     37 ?37          25.618857   -0.954115   55.679712 ?        1 UNK        0.0000
     38 ?38          21.719501   -2.143633   56.119952 ?        1 UNK        0.0000
@<TRIPOS>BOND
     1    1    2 1
     2    2    3 1
     3    2    4 1
     4    4    5 ar
     5    5    6 ar
     6    6    7 ar
     7    7    8 1
     8    8    9 1
     9    9   10 1
    10   10   11 ar
    11   11   12 ar
    12   12   13 ar
    13   13   14 ar
    14   14   15 1
    15   14   16 ar
    16   10   16 ar
    17    8   17 2
    18   17   18 1
    19   18   19 2
    20   19   20 1
    21    7   20 ar
    22   20   21 ar
    23    4   21 ar
    24    1   22 1
    25    1   23 1
    26    1   24 1
    27    3   25 1
    28    3   26 1
    29    3   27 1
    30    5   28 1
    31    6   29 1
    32    9   30 1
    33   11   31 1
    34   12   32 1
    35   13   33 1
    36   16   34 1
    37   18   35 1
    38   21   36 1
    39   17   37 1
    40   19   38 1
@<TRIPOS>SUBSTRUCTURE
1 UNK 1 RESIDUE 1 _ UNK
@<SCITEGIC>MOL_PROPERTY
TRIPOS_COMMENT
SciTegic.value.StringValue
> <Gold.Version>
5.3.0
> <Gold.Id.Protein>
1M17_traj_1ns_WTavg_model_1|1M17_traj_1ns_WTavg_5Awater_forGold_Pro|mol2
> <Gold.Protein.ActiveResidues>
LEU718  ALA743  CYS775  THR790  GLN791  LEU792  MET793  PRO794  GLY796  LEU844
THR854
> <Gold.Score>
Fitness  S(hb_ext) S(vdw_ext)  S(hb_int)    S(int)      intcor
58.35       1.73      42.52       0.00      -1.83     -41.61
> <Gold.Goldscore.Fitness>
58.3550
> <Gold.Goldscore.Internal.Vdw>
-33.5399
> <Gold.Goldscore.Internal.Torsion>
-9.9000
> <Gold.Goldscore.External.Vdw>
42.5165
> <Gold.Goldscore.Internal.HBond>
0.0000
> <Gold.Goldscore.External.HBond>
1.7288
> <Gold.Goldscore.Internal.Correction>
-41.6060
> <Gold.Goldscore.Reference.RMSD>
7.4611
> <Gold.Goldscore.Hbonds>
donor molecule, donor type, donor heavy atom, donor atom, acceptor molecule, acceptor atom, score
P1  H  1548  1549       L1    19  0.86
> <Gold.Goldscore.Internal.Vdw.Weighted>
-33.5399
> <Gold.Goldscore.Internal.Torsion.Weighted>
-9.9000
> <Gold.Goldscore.External.Vdw.Weighted>
58.4601
> <Gold.Goldscore.Internal.HBond.Weighted>
0.0000
> <Gold.Goldscore.External.HBond.Weighted>
1.7288
> <Gold.Goldscore.Internal.Correction.Weighted>
-41.6060
> <Gold.Reference.RMSD>
7.4611

@<SCITEGIC>MOL_PROPERTY
REMARK99
SciTegic.value.StringValue
REMARK  99  MacroMolecule created from Mol2 file
REMARK  99  CHEMBL90013|CHEMBL90013|mol2|1|dock3
REMARK  99  PROTEIN
REMARK  99  USER_CHARGES
REMARK  99  
REMARK  99  

@<SCITEGIC>MOL_PROPERTY
Clean Energy
SciTegic.value.DoubleValue
142.910141

@<SCITEGIC>ATOM_PROPERTY
Formal Charge
SciTegic.value.StringValue
1 0
2 0
3 0
4 0
5 0
6 0
7 0
8 0
9 0
10 0
11 0
12 0
13 0
14 0
15 0
16 0
17 0
18 0
19 0
20 0
21 0
22 0
23 0
24 0
25 0
26 0
27 0
28 0
29 0
30 0
31 0
32 0
33 0
34 0
35 0
36 0
37 0
38 0

@<SCITEGIC>ATOM_PROPERTY
pdb_tempFactor
SciTegic.value.DoubleValue
1 0.00
2 0.00
3 0.00
4 0.00
5 0.00
6 0.00
7 0.00
8 0.00
9 0.00
10 0.00
11 0.00
12 0.00
13 0.00
14 0.00
15 0.00
16 0.00
17 0.00
18 0.00
19 0.00
20 0.00
21 0.00
22 0.00
23 0.00
24 0.00
25 0.00
26 0.00
27 0.00
28 0.00
29 0.00
30 0.00
31 0.00
32 0.00
33 0.00
34 0.00
35 0.00
36 0.00
37 0.00
38 0.00

@<SCITEGIC>ATOM_PROPERTY
pdb_occupancy
SciTegic.value.DoubleValue
1 1.00
2 1.00
3 1.00
4 1.00
5 1.00
6 1.00
7 1.00
8 1.00
9 1.00
10 1.00
11 1.00
12 1.00
13 1.00
14 1.00
15 1.00
16 1.00
17 1.00
18 1.00
19 1.00
20 1.00
21 1.00
22 1.00
23 1.00
24 1.00
25 1.00
26 1.00
27 1.00
28 1.00
29 1.00
30 1.00
31 1.00
32 1.00
33 1.00
34 1.00
35 1.00
36 1.00
37 1.00
38 1.00

