#	Created by:	Discovery Studio
#	Creation time:	2018-10-05T09:11:02Z

@<TRIPOS>MOLECULE
CHEMBL545538
   42    44     1 0 0
PROTEIN
USER_CHARGES


@<TRIPOS>ATOM
      1 C1           18.078770    0.146615   53.434234 C.3      1 UNK        0.2800
      2 O2           19.104186   -0.518806   53.928457 O.3      1 UNK       -0.3625
      3 C3           20.331472   -0.117004   53.811129 C.2      1 UNK        0.0825
      4 C4           20.980877   -0.936797   54.600784 C.2      1 UNK       -0.1500
      5 C5           22.261807   -0.864430   54.830353 C.ar     1 UNK        0.3100
      6 N6           22.693355   -1.729806   55.626454 N.ar     1 UNK       -0.6200
      7 C7           23.947089   -1.747516   55.979688 C.ar     1 UNK        0.4700
      8 N8           24.744098   -0.835682   55.556098 N.ar     1 UNK       -0.6200
      9 C9           24.338288    0.222093   54.668115 C.ar     1 UNK        0.4100
     10 N10          25.484142    1.173055   54.356548 N.pl3    1 UNK       -0.5691
     11 C11          25.019165    2.567537   54.158076 C.3      1 UNK        0.3691
     12 C12          26.940393    0.879481   54.120159 C.ar     1 UNK        0.1000
     13 C13          27.282996   -0.405350   53.905117 C.ar     1 UNK       -0.1500
     14 C14          28.652671   -0.799714   53.700825 C.ar     1 UNK       -0.1500
     15 C15          29.616864    0.101594   53.730906 C.ar     1 UNK       -0.1435
     16 C16          31.022244   -0.330715   53.507148 C.3      1 UNK        0.1435
     17 C17          29.334915    1.491312   53.975643 C.ar     1 UNK       -0.1500
     18 C18          28.074063    1.894718   54.163606 C.ar     1 UNK       -0.1500
     19 C19          23.056836    0.185044   54.251655 C.ar     1 UNK        0.0000
     20 C20          22.380706    1.113593   53.262409 C.2      1 UNK       -0.1500
     21 C21          21.057182    1.048555   52.995611 C.2      1 UNK        0.0825
     22 O22          20.534301    2.146211   51.934023 O.3      1 UNK       -0.3625
     23 C23          21.280960    3.143240   51.129639 C.3      1 UNK        0.2800
     24 H1           17.986381    1.108351   53.956239 H        1 UNK        0.0000
     25 H2           17.163187   -0.432244   53.585749 H        1 UNK        0.0000
     26 H3           18.244634    0.330089   52.364582 H        1 UNK        0.0000
     27 H4           20.430554   -1.699425   55.108013 H        1 UNK        0.1500
     28 H5           24.309308   -2.508635   56.635727 H        1 UNK        0.1500
     29 H6           24.978476    2.863688   53.107951 H        1 UNK        0.0000
     30 H7           25.687940    3.241329   54.709192 H        1 UNK        0.0000
     31 H8           24.018285    2.669877   54.602047 H        1 UNK        0.0000
     32 H9           26.538776   -1.162925   53.880296 H        1 UNK        0.1500
     33 H10          28.890950   -1.828942   53.525068 H        1 UNK        0.1500
     34 H11          31.389263   -0.894431   54.378261 H        1 UNK        0.0000
     35 H12          31.653128    0.541384   53.281188 H        1 UNK        0.0000
     36 H13          31.040954   -0.995162   52.633711 H        1 UNK        0.0000
     37 H14          30.157145    2.188026   54.009869 H        1 UNK        0.1500
     38 H15          27.883201    2.939844   54.348190 H        1 UNK        0.1500
     39 H16          22.959033    1.821468   52.780415 H        1 UNK        0.1500
     40 H17          22.012460    2.619427   50.497318 H        1 UNK        0.0000
     41 H18          21.814332    3.830792   51.801320 H        1 UNK        0.0000
     42 H19          20.585865    3.704527   50.493903 H        1 UNK        0.0000
@<TRIPOS>BOND
     1    1    2 1
     2    2    3 1
     3    3    4 2
     4    4    5 1
     5    5    6 ar
     6    6    7 ar
     7    7    8 ar
     8    8    9 ar
     9    9   10 1
    10   10   11 1
    11   10   12 1
    12   12   13 ar
    13   13   14 ar
    14   14   15 ar
    15   15   16 1
    16   15   17 ar
    17   17   18 ar
    18   12   18 ar
    19    9   19 ar
    20    5   19 ar
    21   19   20 1
    22   20   21 2
    23    3   21 1
    24   21   22 1
    25   22   23 1
    26    1   24 1
    27    1   25 1
    28    1   26 1
    29    4   27 1
    30    7   28 1
    31   11   29 1
    32   11   30 1
    33   11   31 1
    34   13   32 1
    35   14   33 1
    36   16   34 1
    37   16   35 1
    38   16   36 1
    39   17   37 1
    40   18   38 1
    41   20   39 1
    42   23   40 1
    43   23   41 1
    44   23   42 1
@<TRIPOS>SUBSTRUCTURE
1 UNK 1 RESIDUE 1 _ UNK
@<SCITEGIC>MOL_PROPERTY
TRIPOS_COMMENT
SciTegic.value.StringValue
> <Gold.Version>
5.3.0
> <Gold.Id.Protein>
1M17_traj_1ns_WTavg_model_1|1M17_traj_1ns_WTavg_5Awater_forGold_Pro|mol2
> <Gold.Protein.ActiveResidues>
LEU718  ALA743  CYS775  THR790  GLN791  LEU792  MET793  PRO794  GLY796  LEU844
THR854
> <Gold.Score>
Fitness  S(hb_ext) S(vdw_ext)  S(hb_int)    S(int)      intcor
49.91       1.44      37.56       0.00      -3.18      -4.01
> <Gold.Goldscore.Fitness>
49.9117
> <Gold.Goldscore.Internal.Vdw>
-2.1817
> <Gold.Goldscore.Internal.Torsion>
-5.0058
> <Gold.Goldscore.External.Vdw>
37.5646
> <Gold.Goldscore.Internal.HBond>
0.0000
> <Gold.Goldscore.External.HBond>
1.4356
> <Gold.Goldscore.Internal.Correction>
-4.0121
> <Gold.Goldscore.Reference.RMSD>
7.5217
> <Gold.Goldscore.Hbonds>
donor molecule, donor type, donor heavy atom, donor atom, acceptor molecule, acceptor atom, score
P1  H  1548  1549       L1     6  0.72
> <Gold.Goldscore.Internal.Vdw.Weighted>
-2.1817
> <Gold.Goldscore.Internal.Torsion.Weighted>
-5.0058
> <Gold.Goldscore.External.Vdw.Weighted>
51.6514
> <Gold.Goldscore.Internal.HBond.Weighted>
0.0000
> <Gold.Goldscore.External.HBond.Weighted>
1.4356
> <Gold.Goldscore.Internal.Correction.Weighted>
-4.0121
> <Gold.Reference.RMSD>
7.5217

@<SCITEGIC>MOL_PROPERTY
REMARK99
SciTegic.value.StringValue
REMARK  99  MacroMolecule created from Mol2 file
REMARK  99  CHEMBL545538|CHEMBL545538|mol2|1|dock3
REMARK  99  PROTEIN
REMARK  99  USER_CHARGES
REMARK  99  
REMARK  99  

@<SCITEGIC>ATOM_PROPERTY
Formal Charge
SciTegic.value.StringValue
1 0
2 0
3 0
4 0
5 0
6 0
7 0
8 0
9 0
10 0
11 0
12 0
13 0
14 0
15 0
16 0
17 0
18 0
19 0
20 0
21 0
22 0
23 0
24 0
25 0
26 0
27 0
28 0
29 0
30 0
31 0
32 0
33 0
34 0
35 0
36 0
37 0
38 0
39 0
40 0
41 0
42 0

@<SCITEGIC>ATOM_PROPERTY
pdb_tempFactor
SciTegic.value.DoubleValue
1 0.00
2 0.00
3 0.00
4 0.00
5 0.00
6 0.00
7 0.00
8 0.00
9 0.00
10 0.00
11 0.00
12 0.00
13 0.00
14 0.00
15 0.00
16 0.00
17 0.00
18 0.00
19 0.00
20 0.00
21 0.00
22 0.00
23 0.00
24 0.00
25 0.00
26 0.00
27 0.00
28 0.00
29 0.00
30 0.00
31 0.00
32 0.00
33 0.00
34 0.00
35 0.00
36 0.00
37 0.00
38 0.00
39 0.00
40 0.00
41 0.00
42 0.00

@<SCITEGIC>ATOM_PROPERTY
pdb_occupancy
SciTegic.value.DoubleValue
1 1.00
2 1.00
3 1.00
4 1.00
5 1.00
6 1.00
7 1.00
8 1.00
9 1.00
10 1.00
11 1.00
12 1.00
13 1.00
14 1.00
15 1.00
16 1.00
17 1.00
18 1.00
19 1.00
20 1.00
21 1.00
22 1.00
23 1.00
24 1.00
25 1.00
26 1.00
27 1.00
28 1.00
29 1.00
30 1.00
31 1.00
32 1.00
33 1.00
34 1.00
35 1.00
36 1.00
37 1.00
38 1.00
39 1.00
40 1.00
41 1.00
42 1.00

