#	Created by:	Discovery Studio
#	Creation time:	2018-10-05T11:05:22Z

@<TRIPOS>MOLECULE
CHEMBL420624
   30    32     1 0 0
PROTEIN
USER_CHARGES


@<TRIPOS>ATOM
      1 N1           19.369644    0.269127   53.320782 N.pl3    1 UNK       -0.9000
      2 C2           20.551062    0.203240   53.592447 C.ar     1 UNK        0.1000
      3 C3           21.423282    0.979860   52.947567 C.ar     1 UNK       -0.1500
      4 C4           22.763210    0.889517   53.271764 C.ar     1 UNK       -0.1500
      5 C5           23.119797    0.037496   54.206488 C.ar     1 UNK        0.0000
      6 C6           24.412464   -0.057292   54.526979 C.2      1 UNK        0.4100
      7 N7           25.297203    0.804559   53.797018 N.pl3    1 UNK       -0.6000
      8 C8           26.725430    0.676989   53.905669 C.ar     1 UNK        0.1000
      9 C9           27.495593    1.714737   54.257457 C.ar     1 UNK       -0.1500
     10 C10          28.957567    1.542794   54.357796 C.ar     1 UNK       -0.1500
     11 C11          29.511217    0.358819   54.099247 C.ar     1 UNK       -0.1500
     12 C12          28.678582   -0.763791   53.718742 C.ar     1 UNK        0.1110
     13 Br13         29.386251   -2.476850   53.335420 Br       1 UNK       -0.1110
     14 C14          27.369653   -0.613614   53.627911 C.ar     1 UNK       -0.1500
     15 N15          24.747359   -0.890317   55.438420 N.2      1 UNK       -0.6200
     16 C16          23.698376   -1.705688   56.092454 C.2      1 UNK        0.4700
     17 N17          22.493520   -1.595510   55.771270 N.2      1 UNK       -0.6200
     18 C18          22.166965   -0.774144   54.873309 C.ar     1 UNK        0.3100
     19 C19          20.921816   -0.691702   54.573539 C.ar     1 UNK       -0.1500
     20 H1           19.063778    0.880843   52.641146 H        1 UNK        0.4000
     21 H2           18.596412   -0.314936   53.785447 H        1 UNK        0.4000
     22 H3           21.121969    1.660519   52.198007 H        1 UNK        0.1500
     23 H4           23.476691    1.490535   52.779296 H        1 UNK        0.1500
     24 H5           24.861535    1.525314   53.185837 H        1 UNK        0.4000
     25 H6           27.069393    2.661823   54.465953 H        1 UNK        0.1500
     26 H7           29.576052    2.366710   54.637845 H        1 UNK        0.1500
     27 H8           30.538392    0.239702   54.170195 H        1 UNK        0.1500
     28 H9           26.775051   -1.455824   53.345429 H        1 UNK        0.1500
     29 H10          23.975738   -2.426916   56.879422 H        1 UNK        0.1500
     30 H11          20.217572   -1.301410   55.076518 H        1 UNK        0.1500
@<TRIPOS>BOND
     1    1    2 1
     2    2    3 ar
     3    3    4 ar
     4    4    5 ar
     5    5    6 1
     6    6    7 1
     7    7    8 1
     8    8    9 ar
     9    9   10 ar
    10   10   11 ar
    11   11   12 ar
    12   12   13 1
    13   12   14 ar
    14    8   14 ar
    15    6   15 2
    16   15   16 1
    17   16   17 2
    18   17   18 1
    19    5   18 ar
    20   18   19 ar
    21    2   19 ar
    22    1   20 1
    23    1   21 1
    24    3   22 1
    25    4   23 1
    26    7   24 1
    27    9   25 1
    28   10   26 1
    29   11   27 1
    30   14   28 1
    31   16   29 1
    32   19   30 1
@<TRIPOS>SUBSTRUCTURE
1 UNK 1 RESIDUE 1 _ UNK
@<SCITEGIC>MOL_PROPERTY
TRIPOS_COMMENT
SciTegic.value.StringValue
> <Gold.Version>
5.3.0
> <Gold.Id.Protein>
1M17_traj_1ns_WTavg_model_1|1M17_traj_1ns_WTavg_5Awater_forGold_Pro|mol2
> <Gold.Protein.ActiveResidues>
LEU718  ALA743  CYS775  THR790  GLN791  LEU792  MET793  PRO794  GLY796  LEU844
THR854
> <Gold.Score>
Fitness  S(hb_ext) S(vdw_ext)  S(hb_int)    S(int)      intcor
52.85       1.73      38.47       0.00      -1.78     -30.64
> <Gold.Goldscore.Fitness>
52.8469
> <Gold.Goldscore.Internal.Vdw>
-26.9854
> <Gold.Goldscore.Internal.Torsion>
-5.4334
> <Gold.Goldscore.External.Vdw>
38.4719
> <Gold.Goldscore.Internal.HBond>
0.0000
> <Gold.Goldscore.External.HBond>
1.7255
> <Gold.Goldscore.Internal.Correction>
-30.6413
> <Gold.Goldscore.Reference.RMSD>
6.5984
> <Gold.Goldscore.Hbonds>
donor molecule, donor type, donor heavy atom, donor atom, acceptor molecule, acceptor atom, score
P1  H  1548  1549       L1    17  0.86
> <Gold.Goldscore.Internal.Vdw.Weighted>
-26.9854
> <Gold.Goldscore.Internal.Torsion.Weighted>
-5.4334
> <Gold.Goldscore.External.Vdw.Weighted>
52.8989
> <Gold.Goldscore.Internal.HBond.Weighted>
0.0000
> <Gold.Goldscore.External.HBond.Weighted>
1.7255
> <Gold.Goldscore.Internal.Correction.Weighted>
-30.6413
> <Gold.Reference.RMSD>
6.5984

@<SCITEGIC>MOL_PROPERTY
REMARK99
SciTegic.value.StringValue
REMARK  99  MacroMolecule created from Mol2 file
REMARK  99  CHEMBL420624|CHEMBL420624|mol2|1|dock2
REMARK  99  PROTEIN
REMARK  99  USER_CHARGES
REMARK  99  
REMARK  99  

@<SCITEGIC>ATOM_PROPERTY
Formal Charge
SciTegic.value.StringValue
1 0
2 0
3 0
4 0
5 0
6 0
7 0
8 0
9 0
10 0
11 0
12 0
13 0
14 0
15 0
16 0
17 0
18 0
19 0
20 0
21 0
22 0
23 0
24 0
25 0
26 0
27 0
28 0
29 0
30 0

@<SCITEGIC>ATOM_PROPERTY
pdb_tempFactor
SciTegic.value.DoubleValue
1 0.00
2 0.00
3 0.00
4 0.00
5 0.00
6 0.00
7 0.00
8 0.00
9 0.00
10 0.00
11 0.00
12 0.00
13 0.00
14 0.00
15 0.00
16 0.00
17 0.00
18 0.00
19 0.00
20 0.00
21 0.00
22 0.00
23 0.00
24 0.00
25 0.00
26 0.00
27 0.00
28 0.00
29 0.00
30 0.00

@<SCITEGIC>ATOM_PROPERTY
pdb_occupancy
SciTegic.value.DoubleValue
1 1.00
2 1.00
3 1.00
4 1.00
5 1.00
6 1.00
7 1.00
8 1.00
9 1.00
10 1.00
11 1.00
12 1.00
13 1.00
14 1.00
15 1.00
16 1.00
17 1.00
18 1.00
19 1.00
20 1.00
21 1.00
22 1.00
23 1.00
24 1.00
25 1.00
26 1.00
27 1.00
28 1.00
29 1.00
30 1.00

