#	Created by:	Discovery Studio
#	Creation time:	2018-10-05T09:00:58Z

@<TRIPOS>MOLECULE
CHEMBL92709
   36    38     1 0 0
PROTEIN
USER_CHARGES


@<TRIPOS>ATOM
      1 C1           17.963233    0.501872   53.114633 C.3      1 UNK        0.2800
      2 O2           18.920899   -0.123562   53.776392 O.3      1 UNK       -0.3625
      3 C3           20.177384    0.134559   53.616751 C.2      1 UNK        0.0825
      4 C4           20.752498   -0.681343   54.466904 C.2      1 UNK       -0.1500
      5 C5           22.044186   -0.731630   54.673092 C.ar     1 UNK        0.3100
      6 N6           22.404335   -1.561649   55.537615 N.ar     1 UNK       -0.6200
      7 C7           23.664967   -1.683822   55.873650 C.ar     1 UNK        0.4700
      8 N8           24.542260   -0.902096   55.353721 N.ar     1 UNK       -0.6200
      9 C9           24.219058    0.108657   54.382515 C.ar     1 UNK        0.4100
     10 N10          25.453479    0.938650   53.964618 N.pl3    1 UNK       -0.6000
     11 C11          26.938486    0.616070   54.071450 C.ar     1 UNK        0.1000
     12 C12          27.692540    1.536249   54.703968 C.ar     1 UNK       -0.1500
     13 C13          29.153739    1.363258   54.867918 C.ar     1 UNK        0.1110
     14 Br14         30.178536    2.699596   55.773992 Br       1 UNK       -0.1110
     15 C15          29.756299    0.282141   54.386932 C.ar     1 UNK       -0.1500
     16 C16          28.993528   -0.743620   53.681366 C.ar     1 UNK        0.1110
     17 Br17         29.894499   -2.304189   52.999815 Br       1 UNK       -0.1110
     18 C18          27.674108   -0.602080   53.509652 C.ar     1 UNK       -0.1500
     19 C19          22.928213    0.168332   53.990962 C.ar     1 UNK        0.0000
     20 C20          22.331740    1.073296   52.932718 C.2      1 UNK       -0.1500
     21 C21          21.002461    1.139708   52.693020 C.2      1 UNK        0.0825
     22 O22          20.588184    2.204080   51.556262 O.3      1 UNK       -0.3625
     23 C23          21.415924    3.103095   50.740711 C.3      1 UNK        0.2800
     24 H1           17.979511    1.568334   53.379847 H        1 UNK        0.0000
     25 H2           16.992401    0.078398   53.391423 H        1 UNK        0.0000
     26 H3           18.134599    0.395498   52.036359 H        1 UNK        0.0000
     27 H4           20.133907   -1.335520   55.046252 H        1 UNK        0.1500
     28 H5           23.962382   -2.416479   56.590577 H        1 UNK        0.1500
     29 H6           25.241952    1.815362   53.460636 H        1 UNK        0.4000
     30 H7           27.239691    2.412671   55.100640 H        1 UNK        0.1500
     31 H8           30.788062    0.170633   54.509703 H        1 UNK        0.1500
     32 H9           27.152166   -1.369463   52.977429 H        1 UNK        0.1500
     33 H10          22.975077    1.670138   52.378962 H        1 UNK        0.1500
     34 H11          21.971989    3.782780   51.401789 H        1 UNK        0.0000
     35 H12          20.771816    3.694107   50.074442 H        1 UNK        0.0000
     36 H13          22.126407    2.513462   50.145912 H        1 UNK        0.0000
@<TRIPOS>BOND
     1    1    2 1
     2    2    3 1
     3    3    4 2
     4    4    5 1
     5    5    6 ar
     6    6    7 ar
     7    7    8 ar
     8    8    9 ar
     9    9   10 1
    10   10   11 1
    11   11   12 ar
    12   12   13 ar
    13   13   14 1
    14   13   15 ar
    15   15   16 ar
    16   16   17 1
    17   16   18 ar
    18   11   18 ar
    19    9   19 ar
    20    5   19 ar
    21   19   20 1
    22   20   21 2
    23    3   21 1
    24   21   22 1
    25   22   23 1
    26    1   24 1
    27    1   25 1
    28    1   26 1
    29    4   27 1
    30    7   28 1
    31   10   29 1
    32   12   30 1
    33   15   31 1
    34   18   32 1
    35   20   33 1
    36   23   34 1
    37   23   35 1
    38   23   36 1
@<TRIPOS>SUBSTRUCTURE
1 UNK 1 RESIDUE 1 _ UNK
@<SCITEGIC>MOL_PROPERTY
TRIPOS_COMMENT
SciTegic.value.StringValue
> <Gold.Version>
5.3.0
> <Gold.Id.Protein>
1M17_traj_1ns_WTavg_model_1|1M17_traj_1ns_WTavg_5Awater_forGold_Pro|mol2
> <Gold.Protein.ActiveResidues>
LEU718  ALA743  CYS775  THR790  GLN791  LEU792  MET793  PRO794  GLY796  LEU844
THR854
> <Gold.Score>
Fitness  S(hb_ext) S(vdw_ext)  S(hb_int)    S(int)      intcor
60.72       1.76      45.38       0.00      -3.44      -0.22
> <Gold.Goldscore.Fitness>
60.7185
> <Gold.Goldscore.Internal.Vdw>
1.5479
> <Gold.Goldscore.Internal.Torsion>
-5.2061
> <Gold.Goldscore.External.Vdw>
45.3752
> <Gold.Goldscore.Internal.HBond>
0.0000
> <Gold.Goldscore.External.HBond>
1.7639
> <Gold.Goldscore.Internal.Correction>
-0.2218
> <Gold.Goldscore.Reference.RMSD>
7.8193
> <Gold.Goldscore.Hbonds>
donor molecule, donor type, donor heavy atom, donor atom, acceptor molecule, acceptor atom, score
P1  H  1548  1549       L1     6  0.88
> <Gold.Goldscore.Internal.Vdw.Weighted>
1.5479
> <Gold.Goldscore.Internal.Torsion.Weighted>
-5.2061
> <Gold.Goldscore.External.Vdw.Weighted>
62.3909
> <Gold.Goldscore.Internal.HBond.Weighted>
0.0000
> <Gold.Goldscore.External.HBond.Weighted>
1.7639
> <Gold.Goldscore.Internal.Correction.Weighted>
-0.2218
> <Gold.Reference.RMSD>
7.8193

@<SCITEGIC>MOL_PROPERTY
REMARK99
SciTegic.value.StringValue
REMARK  99  MacroMolecule created from Mol2 file
REMARK  99  CHEMBL92709|CHEMBL92709|mol2|1|dock2
REMARK  99  PROTEIN
REMARK  99  USER_CHARGES
REMARK  99  
REMARK  99  

@<SCITEGIC>ATOM_PROPERTY
Formal Charge
SciTegic.value.StringValue
1 0
2 0
3 0
4 0
5 0
6 0
7 0
8 0
9 0
10 0
11 0
12 0
13 0
14 0
15 0
16 0
17 0
18 0
19 0
20 0
21 0
22 0
23 0
24 0
25 0
26 0
27 0
28 0
29 0
30 0
31 0
32 0
33 0
34 0
35 0
36 0

@<SCITEGIC>ATOM_PROPERTY
pdb_tempFactor
SciTegic.value.DoubleValue
1 0.00
2 0.00
3 0.00
4 0.00
5 0.00
6 0.00
7 0.00
8 0.00
9 0.00
10 0.00
11 0.00
12 0.00
13 0.00
14 0.00
15 0.00
16 0.00
17 0.00
18 0.00
19 0.00
20 0.00
21 0.00
22 0.00
23 0.00
24 0.00
25 0.00
26 0.00
27 0.00
28 0.00
29 0.00
30 0.00
31 0.00
32 0.00
33 0.00
34 0.00
35 0.00
36 0.00

@<SCITEGIC>ATOM_PROPERTY
pdb_occupancy
SciTegic.value.DoubleValue
1 1.00
2 1.00
3 1.00
4 1.00
5 1.00
6 1.00
7 1.00
8 1.00
9 1.00
10 1.00
11 1.00
12 1.00
13 1.00
14 1.00
15 1.00
16 1.00
17 1.00
18 1.00
19 1.00
20 1.00
21 1.00
22 1.00
23 1.00
24 1.00
25 1.00
26 1.00
27 1.00
28 1.00
29 1.00
30 1.00
31 1.00
32 1.00
33 1.00
34 1.00
35 1.00
36 1.00

