#	Created by:	Discovery Studio
#	Creation time:	2018-10-05T09:01:25Z

@<TRIPOS>MOLECULE
CHEMBL93051
   31    34     1 0 0
PROTEIN
USER_CHARGES


@<TRIPOS>ATOM
      1 Br1          29.493537   -2.537505   53.301230 Br       1 UNK       -0.1110
      2 C2           28.840517   -0.808716   53.766589 C.ar     1 UNK        0.1110
      3 C3           29.689231    0.103676   54.216334 C.ar     1 UNK       -0.1500
      4 C4           29.243269    1.425831   54.581503 C.ar     1 UNK       -0.1500
      5 C5           27.933076    1.744172   54.463711 C.ar     1 UNK       -0.1500
      6 C6           26.945352    0.692034   53.943486 C.ar     1 UNK        0.1000
      7 N7           25.496088    0.880187   53.758504 N.pl3    1 UNK       -0.6000
      8 C8           24.422950    0.031046   54.391401 C.2      1 UNK        0.4100
      9 N9           24.789866   -0.864023   55.247670 N.2      1 UNK       -0.6200
     10 C10          23.846422   -1.779559   55.957084 C.2      1 UNK        0.4700
     11 N11          22.599931   -1.717833   55.743771 N.2      1 UNK       -0.6200
     12 C12          22.054736   -0.748583   54.797854 C.ar     1 UNK        0.3100
     13 C13          20.740103   -0.663090   54.554428 C.ar     1 UNK       -0.1500
     14 C14          20.264396    0.344618   53.582458 C.ar     1 UNK        0.0825
     15 O15          19.014847    0.566678   53.223758 O.3      1 UNK       -0.3625
     16 C16          18.933577    1.640220   52.241978 C.3      1 UNK        0.5600
     17 O17          20.301017    2.004582   52.084909 O.3      1 UNK       -0.3625
     18 C18          21.060049    1.156238   52.948405 C.ar     1 UNK        0.0825
     19 C19          22.522499    1.089692   53.193346 C.ar     1 UNK       -0.1500
     20 C20          22.989207    0.176090   54.079075 C.ar     1 UNK        0.0000
     21 C21          27.429910   -0.512406   53.624353 C.ar     1 UNK       -0.1500
     22 H1           30.697440   -0.137550   54.308227 H        1 UNK        0.1500
     23 H2           30.006296    2.139699   54.950309 H        1 UNK        0.1500
     24 H3           27.595441    2.722683   54.732614 H        1 UNK        0.1500
     25 H4           25.191594    1.672327   53.133319 H        1 UNK        0.4000
     26 H5           24.218089   -2.513581   56.668221 H        1 UNK        0.1500
     27 H6           20.048151   -1.307121   55.049897 H        1 UNK        0.1500
     28 H7           18.505042    1.282699   51.294968 H        1 UNK        0.0000
     29 H8           18.337592    2.482575   52.620881 H        1 UNK        0.0000
     30 H9           23.178486    1.737283   52.690214 H        1 UNK        0.1500
     31 H10          26.783691   -1.273235   53.259772 H        1 UNK        0.1500
@<TRIPOS>BOND
     1    1    2 1
     2    2    3 ar
     3    3    4 ar
     4    4    5 ar
     5    5    6 ar
     6    6    7 1
     7    7    8 1
     8    8    9 2
     9    9   10 1
    10   10   11 2
    11   11   12 1
    12   12   13 ar
    13   13   14 ar
    14   14   15 1
    15   15   16 1
    16   16   17 1
    17   17   18 1
    18   14   18 ar
    19   18   19 ar
    20   19   20 ar
    21    8   20 1
    22   12   20 ar
    23    6   21 ar
    24    2   21 ar
    25    3   22 1
    26    4   23 1
    27    5   24 1
    28    7   25 1
    29   10   26 1
    30   13   27 1
    31   16   28 1
    32   16   29 1
    33   19   30 1
    34   21   31 1
@<TRIPOS>SUBSTRUCTURE
1 UNK 1 RESIDUE 1 _ UNK
@<SCITEGIC>MOL_PROPERTY
TRIPOS_COMMENT
SciTegic.value.StringValue
> <Gold.Version>
5.3.0
> <Gold.Id.Protein>
1M17_traj_1ns_WTavg_model_1|1M17_traj_1ns_WTavg_5Awater_forGold_Pro|mol2
> <Gold.Protein.ActiveResidues>
LEU718  ALA743  CYS775  THR790  GLN791  LEU792  MET793  PRO794  GLY796  LEU844
THR854
> <Gold.Score>
Fitness  S(hb_ext) S(vdw_ext)  S(hb_int)    S(int)      intcor
53.30       1.99      39.13       0.00      -2.49      -4.40
> <Gold.Goldscore.Fitness>
53.3002
> <Gold.Goldscore.Internal.Vdw>
-1.9186
> <Gold.Goldscore.Internal.Torsion>
-4.9753
> <Gold.Goldscore.External.Vdw>
39.1260
> <Gold.Goldscore.Internal.HBond>
0.0000
> <Gold.Goldscore.External.HBond>
1.9928
> <Gold.Goldscore.Internal.Correction>
-4.4029
> <Gold.Goldscore.Reference.RMSD>
6.0483
> <Gold.Goldscore.Hbonds>
donor molecule, donor type, donor heavy atom, donor atom, acceptor molecule, acceptor atom, score
P1  H  1548  1549       L1    11  1.00
> <Gold.Goldscore.Internal.Vdw.Weighted>
-1.9186
> <Gold.Goldscore.Internal.Torsion.Weighted>
-4.9753
> <Gold.Goldscore.External.Vdw.Weighted>
53.7983
> <Gold.Goldscore.Internal.HBond.Weighted>
0.0000
> <Gold.Goldscore.External.HBond.Weighted>
1.9928
> <Gold.Goldscore.Internal.Correction.Weighted>
-4.4029
> <Gold.Reference.RMSD>
6.0483

@<SCITEGIC>MOL_PROPERTY
REMARK99
SciTegic.value.StringValue
REMARK  99  MacroMolecule created from Mol2 file
REMARK  99  CHEMBL93051|CHEMBL93051|mol2|1|dock3
REMARK  99  PROTEIN
REMARK  99  USER_CHARGES
REMARK  99  
REMARK  99  

@<SCITEGIC>ATOM_PROPERTY
Formal Charge
SciTegic.value.StringValue
1 0
2 0
3 0
4 0
5 0
6 0
7 0
8 0
9 0
10 0
11 0
12 0
13 0
14 0
15 0
16 0
17 0
18 0
19 0
20 0
21 0
22 0
23 0
24 0
25 0
26 0
27 0
28 0
29 0
30 0
31 0

@<SCITEGIC>ATOM_PROPERTY
pdb_tempFactor
SciTegic.value.DoubleValue
1 0.00
2 0.00
3 0.00
4 0.00
5 0.00
6 0.00
7 0.00
8 0.00
9 0.00
10 0.00
11 0.00
12 0.00
13 0.00
14 0.00
15 0.00
16 0.00
17 0.00
18 0.00
19 0.00
20 0.00
21 0.00
22 0.00
23 0.00
24 0.00
25 0.00
26 0.00
27 0.00
28 0.00
29 0.00
30 0.00
31 0.00

@<SCITEGIC>ATOM_PROPERTY
pdb_occupancy
SciTegic.value.DoubleValue
1 1.00
2 1.00
3 1.00
4 1.00
5 1.00
6 1.00
7 1.00
8 1.00
9 1.00
10 1.00
11 1.00
12 1.00
13 1.00
14 1.00
15 1.00
16 1.00
17 1.00
18 1.00
19 1.00
20 1.00
21 1.00
22 1.00
23 1.00
24 1.00
25 1.00
26 1.00
27 1.00
28 1.00
29 1.00
30 1.00
31 1.00

