#	Created by:	Discovery Studio
#	Creation time:	2018-10-05T11:41:54Z

@<TRIPOS>MOLECULE
CHEMBL304929
   38    40     1 0 0
PROTEIN
USER_CHARGES


@<TRIPOS>ATOM
      1 C1           17.636942    0.581219   53.027755 C.3      1 UNK        0.2800
      2 O2           18.733402   -0.142312   53.679398 O.3      1 UNK       -0.3625
      3 C3           20.166832    0.131126   53.674486 C.2      1 UNK        0.0825
      4 C4           20.755080   -0.736852   54.529415 C.2      1 UNK       -0.1500
      5 C5           22.189905   -0.775221   54.801537 C.ar     1 UNK        0.3100
      6 N6           22.657516   -1.637600   55.631348 N.ar     1 UNK       -0.6200
      7 C7           23.989267   -1.703937   55.912614 C.ar     1 UNK        0.4700
      8 N8           24.815445   -0.885661   55.339565 N.ar     1 UNK       -0.6200
      9 C9           24.381542    0.110814   54.398980 C.ar     1 UNK        0.4100
     10 N10          25.460467    1.015833   53.792782 N.pl3    1 UNK       -0.6000
     11 C11          26.928746    0.803624   53.927381 C.ar     1 UNK        0.1000
     12 C12          27.833261    1.749081   54.283989 C.ar     1 UNK       -0.1500
     13 C13          29.313040    1.378933   54.380136 C.ar     1 UNK       -0.1500
     14 C14          29.686552    0.140931   54.113408 C.ar     1 UNK       -0.1500
     15 C15          28.728314   -0.860311   53.735525 C.ar     1 UNK        0.0730
     16 C16          27.431638   -0.568776   53.642893 C.ar     1 UNK       -0.1500
     17 C17          29.201971   -2.178882   53.461177 C.1      1 UNK       -0.0730
     18 C18          29.602861   -3.293560   53.229364 C.1      1 UNK       -0.1770
     19 C19          23.056065    0.176638   54.117967 C.ar     1 UNK        0.0000
     20 C20          22.422414    1.176880   53.138069 C.2      1 UNK       -0.1500
     21 C21          21.076760    1.220297   52.873694 C.2      1 UNK        0.0825
     22 O22          20.683143    2.335861   51.827940 O.3      1 UNK       -0.3625
     23 C23          21.538921    3.226331   51.092576 C.3      1 UNK        0.2800
     24 H1           16.675901    0.103591   53.287971 H        1 UNK        0.0000
     25 H2           17.761049    0.550365   51.936785 H        1 UNK        0.0000
     26 H3           17.616639    1.624261   53.373216 H        1 UNK        0.0000
     27 H4           20.126852   -1.448334   55.046949 H        1 UNK        0.1500
     28 H5           24.347438   -2.449020   56.621247 H        1 UNK        0.1500
     29 H6           25.141177    1.855388   53.236435 H        1 UNK        0.4000
     30 H7           27.520928    2.749620   54.498260 H        1 UNK        0.1500
     31 H8           30.104647    2.100149   54.665399 H        1 UNK        0.1500
     32 H9           30.690692   -0.111804   54.178306 H        1 UNK        0.1500
     33 H10          26.753815   -1.330624   53.361942 H        1 UNK        0.1500
     34 H11          29.944973   -4.244850   53.031646 H        1 UNK        0.1770
     35 H12          23.062186    1.864159   52.643803 H        1 UNK        0.1500
     36 H13          20.927122    3.848674   50.428142 H        1 UNK        0.0000
     37 H14          22.245213    2.640051   50.492197 H        1 UNK        0.0000
     38 H15          22.082781    3.870831   51.794718 H        1 UNK        0.0000
@<TRIPOS>BOND
     1    1    2 1
     2    2    3 1
     3    3    4 2
     4    4    5 1
     5    5    6 ar
     6    6    7 ar
     7    7    8 ar
     8    8    9 ar
     9    9   10 1
    10   10   11 1
    11   11   12 ar
    12   12   13 ar
    13   13   14 ar
    14   14   15 ar
    15   15   16 ar
    16   11   16 ar
    17   15   17 1
    18   17   18 3
    19    9   19 ar
    20    5   19 ar
    21   19   20 1
    22   20   21 2
    23    3   21 1
    24   21   22 1
    25   22   23 1
    26    1   24 1
    27    1   25 1
    28    1   26 1
    29    4   27 1
    30    7   28 1
    31   10   29 1
    32   12   30 1
    33   13   31 1
    34   14   32 1
    35   16   33 1
    36   18   34 1
    37   20   35 1
    38   23   36 1
    39   23   37 1
    40   23   38 1
@<TRIPOS>SUBSTRUCTURE
1 UNK 1 RESIDUE 1 _ UNK
@<SCITEGIC>MOL_PROPERTY
TRIPOS_COMMENT
SciTegic.value.StringValue
> <Gold.Version>
5.3.0
> <Gold.Id.Protein>
1M17_traj_1ns_WTavg_model_1|1M17_traj_1ns_WTavg_5Awater_forGold_Pro|mol2
> <Gold.Protein.ActiveResidues>
LEU718  ALA743  CYS775  THR790  GLN791  LEU792  MET793  PRO794  GLY796  LEU844
THR854
> <Gold.Score>
Fitness  S(hb_ext) S(vdw_ext)  S(hb_int)    S(int)      intcor
57.03       1.92      41.56       0.00      -2.03      -1.50
> <Gold.Goldscore.Fitness>
57.0295
> <Gold.Goldscore.Internal.Vdw>
0.4490
> <Gold.Goldscore.Internal.Torsion>
-3.9833
> <Gold.Goldscore.External.Vdw>
41.5588
> <Gold.Goldscore.Internal.HBond>
0.0000
> <Gold.Goldscore.External.HBond>
1.9191
> <Gold.Goldscore.Internal.Correction>
-1.5015
> <Gold.Goldscore.Reference.RMSD>
7.6962
> <Gold.Goldscore.Hbonds>
donor molecule, donor type, donor heavy atom, donor atom, acceptor molecule, acceptor atom, score
P1  H  1548  1549       L1     6  0.96
> <Gold.Goldscore.Internal.Vdw.Weighted>
0.4490
> <Gold.Goldscore.Internal.Torsion.Weighted>
-3.9833
> <Gold.Goldscore.External.Vdw.Weighted>
57.1433
> <Gold.Goldscore.Internal.HBond.Weighted>
0.0000
> <Gold.Goldscore.External.HBond.Weighted>
1.9191
> <Gold.Goldscore.Internal.Correction.Weighted>
-1.5015
> <Gold.Reference.RMSD>
7.6962

@<SCITEGIC>MOL_PROPERTY
REMARK99
SciTegic.value.StringValue
REMARK  99  MacroMolecule created from Mol2 file
REMARK  99  CHEMBL304929|CHEMBL304929|mol2|1|dock3
REMARK  99  PROTEIN
REMARK  99  USER_CHARGES
REMARK  99  
REMARK  99  

@<SCITEGIC>ATOM_PROPERTY
Formal Charge
SciTegic.value.StringValue
1 0
2 0
3 0
4 0
5 0
6 0
7 0
8 0
9 0
10 0
11 0
12 0
13 0
14 0
15 0
16 0
17 0
18 0
19 0
20 0
21 0
22 0
23 0
24 0
25 0
26 0
27 0
28 0
29 0
30 0
31 0
32 0
33 0
34 0
35 0
36 0
37 0
38 0

@<SCITEGIC>ATOM_PROPERTY
pdb_tempFactor
SciTegic.value.DoubleValue
1 0.00
2 0.00
3 0.00
4 0.00
5 0.00
6 0.00
7 0.00
8 0.00
9 0.00
10 0.00
11 0.00
12 0.00
13 0.00
14 0.00
15 0.00
16 0.00
17 0.00
18 0.00
19 0.00
20 0.00
21 0.00
22 0.00
23 0.00
24 0.00
25 0.00
26 0.00
27 0.00
28 0.00
29 0.00
30 0.00
31 0.00
32 0.00
33 0.00
34 0.00
35 0.00
36 0.00
37 0.00
38 0.00

@<SCITEGIC>ATOM_PROPERTY
pdb_occupancy
SciTegic.value.DoubleValue
1 1.00
2 1.00
3 1.00
4 1.00
5 1.00
6 1.00
7 1.00
8 1.00
9 1.00
10 1.00
11 1.00
12 1.00
13 1.00
14 1.00
15 1.00
16 1.00
17 1.00
18 1.00
19 1.00
20 1.00
21 1.00
22 1.00
23 1.00
24 1.00
25 1.00
26 1.00
27 1.00
28 1.00
29 1.00
30 1.00
31 1.00
32 1.00
33 1.00
34 1.00
35 1.00
36 1.00
37 1.00
38 1.00

