#	Created by:	Discovery Studio
#	Creation time:	2018-10-03T22:29:40Z

@<TRIPOS>MOLECULE
CHEMBL2018762|CHEMBL2018762|mol2|1|dock1_error
   50    52     1 0 0
PROTEIN
USER_CHARGES


@<TRIPOS>ATOM
      1 C1           33.514035    5.728610   52.645828 C.3      1 UNK        0.0000
      2 C2           32.719398    4.431116   52.630265 C.3      1 UNK        0.2800
      3 O3           31.513507    4.529857   53.371873 O.3      1 UNK       -0.4300
      4 C4           30.832896    3.302114   53.281825 C.2      1 UNK        0.7800
      5 O5           31.261480    2.340888   52.559057 O.2      1 UNK       -0.5700
      6 N6           29.615265    3.084390   54.033331 N.am     1 UNK       -0.5470
      7 C7           28.871601    1.788542   54.046338 C.ar     1 UNK        0.1170
      8 C8           27.492932    1.900729   53.852895 C.ar     1 UNK       -0.1500
      9 C9           26.690223    0.760717   53.830450 C.ar     1 UNK        0.1000
     10 N10          25.293495    0.815862   53.624953 N.pl3    1 UNK       -0.6000
     11 C11          24.416655   -0.224320   54.287030 C.2      1 UNK        0.4100
     12 N12          24.799473   -1.245681   55.028590 N.2      1 UNK       -0.6200
     13 C13          23.785779   -2.072612   55.749161 C.2      1 UNK        0.4700
     14 N14          22.583265   -1.785918   55.695871 N.2      1 UNK       -0.6200
     15 C15          22.224405   -0.744111   54.939254 C.ar     1 UNK        0.3100
     16 C16          20.926038   -0.382745   54.920192 C.ar     1 UNK       -0.1500
     17 C17          20.477469    0.689524   54.188282 C.ar     1 UNK        0.0825
     18 O18          19.269575    0.688862   54.556162 O.3      1 UNK       -0.3625
     19 C19          17.930090    0.682473   54.970364 C.3      1 UNK        0.2800
     20 C20          21.335738    1.443514   53.347990 C.ar     1 UNK        0.0825
     21 O21          21.220054    2.612648   52.415605 O.3      1 UNK       -0.3625
     22 C22          21.116819    3.728582   51.524330 C.3      1 UNK        0.2800
     23 C23          22.662381    1.061957   53.402344 C.ar     1 UNK       -0.1500
     24 C24          23.098510    0.017582   54.200469 C.ar     1 UNK        0.0000
     25 C25          27.269249   -0.480056   54.016613 C.ar     1 UNK       -0.1500
     26 C26          28.621677   -0.631777   54.215496 C.ar     1 UNK       -0.1500
     27 C27          29.424142    0.492048   54.224214 C.ar     1 UNK       -0.1435
     28 C28          30.841452    0.114323   54.433585 C.3      1 UNK        0.1435
     29 H1           33.743816    6.003779   53.682101 H        1 UNK        0.0000
     30 H2           32.929894    6.525955   52.168440 H        1 UNK        0.0000
     31 H3           34.450660    5.573217   52.088609 H        1 UNK        0.0000
     32 H4           32.478882    4.169968   51.588571 H        1 UNK        0.0000
     33 H5           33.325554    3.630535   53.072009 H        1 UNK        0.0000
     34 H6           29.216983    3.901813   54.529629 H        1 UNK        0.3700
     35 H7           27.056581    2.872994   53.714769 H        1 UNK        0.1500
     36 H8           24.873159    1.651530   53.141058 H        1 UNK        0.4000
     37 H9           24.100921   -2.918395   56.356926 H        1 UNK        0.1500
     38 H10          20.251120   -0.918468   55.504371 H        1 UNK        0.1500
     39 H11          17.320043    1.353050   54.378068 H        1 UNK        0.0000
     40 H12          17.910096    0.997913   56.036249 H        1 UNK        0.0000
     41 H13          17.540139   -0.349549   54.907721 H        1 UNK        0.0000
     42 H14          21.730137    4.549542   51.932012 H        1 UNK        0.0000
     43 H15          20.087100    4.048346   51.409271 H        1 UNK        0.0000
     44 H16          21.533751    3.426517   50.543684 H        1 UNK        0.0000
     45 H17          23.353136    1.598277   52.836949 H        1 UNK        0.1500
     46 H18          26.661209   -1.326890   54.011434 H        1 UNK        0.1500
     47 H19          29.079507   -1.663662   54.364544 H        1 UNK        0.1500
     48 H20          30.894965   -0.702695   55.176798 H        1 UNK        0.0000
     49 H21          31.478353    0.955878   54.689990 H        1 UNK        0.0000
     50 H22          31.177858   -0.328337   53.478989 H        1 UNK        0.0000
@<TRIPOS>BOND
     1    1    2 1
     2    2    3 1
     3    3    4 1
     4    4    5 2
     5    4    6 1
     6    6    7 1
     7    7    8 ar
     8    8    9 ar
     9    9   10 1
    10   10   11 1
    11   11   12 2
    12   12   13 1
    13   13   14 2
    14   14   15 1
    15   15   16 ar
    16   16   17 ar
    17   17   18 1
    18   18   19 1
    19   17   20 ar
    20   20   21 1
    21   21   22 1
    22   20   23 ar
    23   23   24 ar
    24   11   24 1
    25   15   24 ar
    26    9   25 ar
    27   25   26 ar
    28   26   27 ar
    29    7   27 ar
    30   27   28 1
    31    1   29 1
    32    1   30 1
    33    1   31 1
    34    2   32 1
    35    2   33 1
    36    6   34 1
    37    8   35 1
    38   10   36 1
    39   13   37 1
    40   16   38 1
    41   19   39 1
    42   19   40 1
    43   19   41 1
    44   22   42 1
    45   22   43 1
    46   22   44 1
    47   23   45 1
    48   25   46 1
    49   26   47 1
    50   28   48 1
    51   28   49 1
    52   28   50 1
@<TRIPOS>SUBSTRUCTURE
1 UNK 1 RESIDUE 1 _ UNK
@<SCITEGIC>MOL_PROPERTY
TRIPOS_COMMENT
SciTegic.value.StringValue
> <Gold.Version>
5.3.0
> <Gold.Id.Protein>
1M17_traj_1ns_WTavg_model_1|1M17_traj_1ns_WTavg_5Awater_forGold_Pro|mol2
> <Gold.Protein.ActiveResidues>
LEU718  ALA743  CYS775  THR790  GLN791  LEU792  MET793  PRO794  GLY796  LEU844
THR854
> <Gold.Score>
Fitness  S(hb_ext) S(vdw_ext)  S(hb_int)    S(int)      intcor
53.97       0.00      40.41       0.00      -1.60     -24.97
> <Gold.Goldscore.Fitness>
53.9679
> <Gold.Goldscore.Internal.Vdw>
-18.9530
> <Gold.Goldscore.Internal.Torsion>
-7.6177
> <Gold.Goldscore.External.Vdw>
40.4110
> <Gold.Goldscore.Internal.HBond>
0.0000
> <Gold.Goldscore.External.HBond>
0.0000
> <Gold.Goldscore.Internal.Correction>
-24.9734
> <Gold.Goldscore.Reference.RMSD>
8.9935
> <Gold.Goldscore.Internal.Vdw.Weighted>
-18.9530
> <Gold.Goldscore.Internal.Torsion.Weighted>
-7.6177
> <Gold.Goldscore.External.Vdw.Weighted>
55.5652
> <Gold.Goldscore.Internal.HBond.Weighted>
0.0000
> <Gold.Goldscore.External.HBond.Weighted>
0.0000
> <Gold.Goldscore.Internal.Correction.Weighted>
-24.9734
> <Gold.Reference.RMSD>
8.9935

@<SCITEGIC>MOL_PROPERTY
REMARK99
SciTegic.value.StringValue
REMARK  99  MacroMolecule created from Mol2 file
REMARK  99  CHEMBL2018762|CHEMBL2018762|mol2|1|dock1
REMARK  99  PROTEIN
REMARK  99  USER_CHARGES
REMARK  99  
REMARK  99  

@<SCITEGIC>MOL_PROPERTY
Clean Energy
SciTegic.value.DoubleValue
173.099564

@<SCITEGIC>ATOM_PROPERTY
Formal Charge
SciTegic.value.StringValue
1 0
2 0
3 0
4 0
5 0
6 0
7 0
8 0
9 0
10 0
11 0
12 0
13 0
14 0
15 0
16 0
17 0
18 0
19 0
20 0
21 0
22 0
23 0
24 0
25 0
26 0
27 0
28 0
29 0
30 0
31 0
32 0
33 0
34 0
35 0
36 0
37 0
38 0
39 0
40 0
41 0
42 0
43 0
44 0
45 0
46 0
47 0
48 0
49 0
50 0

@<SCITEGIC>ATOM_PROPERTY
pdb_tempFactor
SciTegic.value.DoubleValue
1 0.00
2 0.00
3 0.00
4 0.00
5 0.00
6 0.00
7 0.00
8 0.00
9 0.00
10 0.00
11 0.00
12 0.00
13 0.00
14 0.00
15 0.00
16 0.00
17 0.00
18 0.00
19 0.00
20 0.00
21 0.00
22 0.00
23 0.00
24 0.00
25 0.00
26 0.00
27 0.00
28 0.00
29 0.00
30 0.00
31 0.00
32 0.00
33 0.00
34 0.00
35 0.00
36 0.00
37 0.00
38 0.00
39 0.00
40 0.00
41 0.00
42 0.00
43 0.00
44 0.00
45 0.00
46 0.00
47 0.00
48 0.00
49 0.00
50 0.00

@<SCITEGIC>ATOM_PROPERTY
pdb_occupancy
SciTegic.value.DoubleValue
1 1.00
2 1.00
3 1.00
4 1.00
5 1.00
6 1.00
7 1.00
8 1.00
9 1.00
10 1.00
11 1.00
12 1.00
13 1.00
14 1.00
15 1.00
16 1.00
17 1.00
18 1.00
19 1.00
20 1.00
21 1.00
22 1.00
23 1.00
24 1.00
25 1.00
26 1.00
27 1.00
28 1.00
29 1.00
30 1.00
31 1.00
32 1.00
33 1.00
34 1.00
35 1.00
36 1.00
37 1.00
38 1.00
39 1.00
40 1.00
41 1.00
42 1.00
43 1.00
44 1.00
45 1.00
46 1.00
47 1.00
48 1.00
49 1.00
50 1.00

