#	Created by:	Discovery Studio
#	Creation time:	2018-10-05T09:12:52Z

@<TRIPOS>MOLECULE
CHEMBL539807
   42    44     1 0 0
PROTEIN
USER_CHARGES


@<TRIPOS>ATOM
      1 C1           17.995938    0.135449   52.695979 C.3      1 UNK        0.2800
      2 O2           19.336665    0.176907   53.088342 O.3      1 UNK       -0.3625
      3 C3           20.515576    0.211857   53.434556 C.2      1 UNK        0.0825
      4 C4           20.845491   -0.659232   54.384550 C.2      1 UNK       -0.1500
      5 C5           22.176783   -0.711350   54.857941 C.ar     1 UNK        0.3100
      6 N6           22.515065   -1.562345   55.806495 N.ar     1 UNK       -0.6200
      7 C7           23.757849   -1.599262   56.228946 C.ar     1 UNK        0.4700
      8 N8           24.689176   -0.775965   55.722589 N.ar     1 UNK       -0.6200
      9 C9           24.422796    0.135730   54.777487 C.ar     1 UNK        0.4100
     10 N10          25.544584    1.147389   54.289771 N.pl3    1 UNK       -0.5691
     11 C11          25.136785    2.618461   54.138107 C.3      1 UNK        0.3691
     12 C12          26.957697    0.743440   54.279643 C.ar     1 UNK        0.1000
     13 C13          27.227254   -0.630016   54.310990 C.ar     1 UNK       -0.1500
     14 C14          28.552678   -1.063385   54.322499 C.ar     1 UNK       -0.1500
     15 C15          29.589326   -0.145474   54.316727 C.ar     1 UNK       -0.1500
     16 C16          29.353311    1.210633   54.276335 C.ar     1 UNK       -0.1435
     17 C17          28.031273    1.666377   54.245972 C.ar     1 UNK       -0.1500
     18 C18          30.610166    2.106596   54.304984 C.3      1 UNK        1.1635
     19 F19          31.281671    1.999057   53.104790 F        1 UNK       -0.3400
     20 F20          31.440091    1.559964   55.250475 F        1 UNK       -0.3400
     21 F21          30.305569    3.422659   54.575943 F        1 UNK       -0.3400
     22 C22          23.112040    0.155439   54.313160 C.ar     1 UNK        0.0000
     23 C23          22.721957    1.047372   53.281512 C.2      1 UNK       -0.1500
     24 C24          21.511251    1.138059   52.832614 C.2      1 UNK        0.0825
     25 O25          21.385603    2.177351   51.793880 O.3      1 UNK       -0.3625
     26 C26          21.269631    3.183029   50.790850 C.3      1 UNK        0.2800
     27 H1           17.942771   -0.054916   51.615234 H        1 UNK        0.0000
     28 H2           17.519390    1.098081   52.923231 H        1 UNK        0.0000
     29 H3           17.473491   -0.670802   53.236376 H        1 UNK        0.0000
     30 H4           20.101888   -1.318018   54.792732 H        1 UNK        0.1500
     31 H5           24.030081   -2.309608   57.001681 H        1 UNK        0.1500
     32 H6           25.019855    2.836551   53.053195 H        1 UNK        0.0000
     33 H7           25.917836    3.273934   54.525207 H        1 UNK        0.0000
     34 H8           24.180731    2.809227   54.635560 H        1 UNK        0.0000
     35 H9           26.377174   -1.386363   54.330058 H        1 UNK        0.1500
     36 H10          28.799934   -2.092214   54.343988 H        1 UNK        0.1500
     37 H11          30.564057   -0.464893   54.347386 H        1 UNK        0.1500
     38 H12          27.863632    2.717983   54.218348 H        1 UNK        0.1500
     39 H13          23.436689    1.665973   52.866252 H        1 UNK        0.1500
     40 H14          20.261498    3.266471   50.422084 H        1 UNK        0.0000
     41 H15          21.968597    2.923558   49.976077 H        1 UNK        0.0000
     42 H16          21.602036    4.141080   51.241294 H        1 UNK        0.0000
@<TRIPOS>BOND
     1    1    2 1
     2    2    3 1
     3    3    4 2
     4    4    5 1
     5    5    6 ar
     6    6    7 ar
     7    7    8 ar
     8    8    9 ar
     9    9   10 1
    10   10   11 1
    11   10   12 1
    12   12   13 ar
    13   13   14 ar
    14   14   15 ar
    15   15   16 ar
    16   16   17 ar
    17   12   17 ar
    18   16   18 1
    19   18   19 1
    20   18   20 1
    21   18   21 1
    22    9   22 ar
    23    5   22 ar
    24   22   23 1
    25   23   24 2
    26    3   24 1
    27   24   25 1
    28   25   26 1
    29    1   27 1
    30    1   28 1
    31    1   29 1
    32    4   30 1
    33    7   31 1
    34   11   32 1
    35   11   33 1
    36   11   34 1
    37   13   35 1
    38   14   36 1
    39   15   37 1
    40   17   38 1
    41   23   39 1
    42   26   40 1
    43   26   41 1
    44   26   42 1
@<TRIPOS>SUBSTRUCTURE
1 UNK 1 RESIDUE 1 _ UNK
@<SCITEGIC>MOL_PROPERTY
TRIPOS_COMMENT
SciTegic.value.StringValue
> <Gold.Version>
5.3.0
> <Gold.Id.Protein>
1M17_traj_1ns_WTavg_model_1|1M17_traj_1ns_WTavg_5Awater_forGold_Pro|mol2
> <Gold.Protein.ActiveResidues>
LEU718  ALA743  CYS775  THR790  GLN791  LEU792  MET793  PRO794  GLY796  LEU844
THR854
> <Gold.Score>
Fitness  S(hb_ext) S(vdw_ext)  S(hb_int)    S(int)      intcor
56.48       1.70      43.18       0.00      -4.59      -2.55
> <Gold.Goldscore.Fitness>
56.4842
> <Gold.Goldscore.Internal.Vdw>
1.1158
> <Gold.Goldscore.Internal.Torsion>
-8.2618
> <Gold.Goldscore.External.Vdw>
43.1833
> <Gold.Goldscore.Internal.HBond>
0.0000
> <Gold.Goldscore.External.HBond>
1.6982
> <Gold.Goldscore.Internal.Correction>
-2.5549
> <Gold.Goldscore.Reference.RMSD>
9.2673
> <Gold.Goldscore.Hbonds>
donor molecule, donor type, donor heavy atom, donor atom, acceptor molecule, acceptor atom, score
P1  H  1548  1549       L1     6  0.85
> <Gold.Goldscore.Internal.Vdw.Weighted>
1.1158
> <Gold.Goldscore.Internal.Torsion.Weighted>
-8.2618
> <Gold.Goldscore.External.Vdw.Weighted>
59.3771
> <Gold.Goldscore.Internal.HBond.Weighted>
0.0000
> <Gold.Goldscore.External.HBond.Weighted>
1.6982
> <Gold.Goldscore.Internal.Correction.Weighted>
-2.5549
> <Gold.Reference.RMSD>
9.2673

@<SCITEGIC>MOL_PROPERTY
REMARK99
SciTegic.value.StringValue
REMARK  99  MacroMolecule created from Mol2 file
REMARK  99  CHEMBL539807|CHEMBL539807|mol2|1|dock3
REMARK  99  PROTEIN
REMARK  99  USER_CHARGES
REMARK  99  
REMARK  99  

@<SCITEGIC>MOL_PROPERTY
Clean Energy
SciTegic.value.DoubleValue
37.288006

@<SCITEGIC>ATOM_PROPERTY
Formal Charge
SciTegic.value.StringValue
1 0
2 0
3 0
4 0
5 0
6 0
7 0
8 0
9 0
10 0
11 0
12 0
13 0
14 0
15 0
16 0
17 0
18 0
19 0
20 0
21 0
22 0
23 0
24 0
25 0
26 0
27 0
28 0
29 0
30 0
31 0
32 0
33 0
34 0
35 0
36 0
37 0
38 0
39 0
40 0
41 0
42 0

@<SCITEGIC>ATOM_PROPERTY
pdb_tempFactor
SciTegic.value.DoubleValue
1 0.00
2 0.00
3 0.00
4 0.00
5 0.00
6 0.00
7 0.00
8 0.00
9 0.00
10 0.00
11 0.00
12 0.00
13 0.00
14 0.00
15 0.00
16 0.00
17 0.00
18 0.00
19 0.00
20 0.00
21 0.00
22 0.00
23 0.00
24 0.00
25 0.00
26 0.00
27 0.00
28 0.00
29 0.00
30 0.00
31 0.00
32 0.00
33 0.00
34 0.00
35 0.00
36 0.00
37 0.00
38 0.00
39 0.00
40 0.00
41 0.00
42 0.00

@<SCITEGIC>ATOM_PROPERTY
pdb_occupancy
SciTegic.value.DoubleValue
1 1.00
2 1.00
3 1.00
4 1.00
5 1.00
6 1.00
7 1.00
8 1.00
9 1.00
10 1.00
11 1.00
12 1.00
13 1.00
14 1.00
15 1.00
16 1.00
17 1.00
18 1.00
19 1.00
20 1.00
21 1.00
22 1.00
23 1.00
24 1.00
25 1.00
26 1.00
27 1.00
28 1.00
29 1.00
30 1.00
31 1.00
32 1.00
33 1.00
34 1.00
35 1.00
36 1.00
37 1.00
38 1.00
39 1.00
40 1.00
41 1.00
42 1.00

