#	Created by:	Discovery Studio
#	Creation time:	2018-10-05T08:58:45Z

@<TRIPOS>MOLECULE
CHEMBL63469
   32    34     1 0 0
PROTEIN
USER_CHARGES


@<TRIPOS>ATOM
      1 N1           20.269337    1.949897   51.824188 N.pl3    1 UNK       -0.9000
      2 C2           21.024842    1.056358   52.886917 C.2      1 UNK        0.1000
      3 C3           22.367762    1.113702   53.147663 C.2      1 UNK       -0.1500
      4 C4           23.028784    0.184260   54.223571 C.ar     1 UNK        0.0000
      5 C5           24.347451    0.192269   54.527436 C.ar     1 UNK        0.4100
      6 N6           25.402010    1.104459   53.874320 N.pl3    1 UNK       -0.6000
      7 C7           26.813628    0.776610   53.914678 C.ar     1 UNK        0.1000
      8 C8           27.710368    1.725062   54.207044 C.ar     1 UNK       -0.1500
      9 C9           29.138450    1.397327   54.248717 C.ar     1 UNK       -0.1500
     10 C10          29.551614    0.157483   53.996679 C.ar     1 UNK       -0.1500
     11 C11          28.598802   -0.879698   53.679102 C.ar     1 UNK        0.1110
     12 Br12         29.156211   -2.660070   53.314216 Br       1 UNK       -0.1110
     13 C13          27.311153   -0.596810   53.638625 C.ar     1 UNK       -0.1500
     14 N14          24.786376   -0.738245   55.551754 N.ar     1 UNK       -0.6200
     15 C15          24.025283   -1.559102   56.183835 C.ar     1 UNK        0.4700
     16 N16          22.668361   -1.584963   55.888481 N.ar     1 UNK       -0.6200
     17 C17          22.164226   -0.786380   54.979252 C.ar     1 UNK        0.3100
     18 C18          20.683058   -0.767744   54.610595 C.2      1 UNK       -0.1500
     19 C19          20.191005    0.081300   53.654279 C.2      1 UNK        0.1770
     20 Cl20         18.483441    0.091503   53.240373 Cl       1 UNK       -0.1770
     21 H1           20.785189    2.669738   51.234018 H        1 UNK        0.4000
     22 H2           19.257474    1.839250   51.694360 H        1 UNK        0.4000
     23 H3           22.976835    1.793540   52.619224 H        1 UNK        0.1500
     24 H4           25.100150    1.982481   53.388706 H        1 UNK        0.4000
     25 H5           27.402415    2.717527   54.410777 H        1 UNK        0.1500
     26 H6           29.847305    2.152193   54.481139 H        1 UNK        0.1500
     27 H7           30.559789   -0.067481   54.027503 H        1 UNK        0.1500
     28 H8           26.633450   -1.378189   53.402761 H        1 UNK        0.1500
     29 H9           24.430369   -2.227037   56.940436 H        1 UNK        0.1500
     30 H10          20.006270   -1.442402   55.118038 H        1 UNK        0.1500
     31 ?31          25.759010   -0.740888   55.784321 ?        1 UNK        0.0000
     32 ?32          22.068801   -2.220245   56.375219 ?        1 UNK        0.0000
@<TRIPOS>BOND
     1    1    2 1
     2    2    3 2
     3    3    4 1
     4    4    5 ar
     5    5    6 1
     6    6    7 1
     7    7    8 ar
     8    8    9 ar
     9    9   10 ar
    10   10   11 ar
    11   11   12 1
    12   11   13 ar
    13    7   13 ar
    14    5   14 ar
    15   14   15 ar
    16   15   16 ar
    17   16   17 ar
    18    4   17 ar
    19   17   18 1
    20   18   19 2
    21    2   19 1
    22   19   20 1
    23    1   21 1
    24    1   22 1
    25    3   23 1
    26    6   24 1
    27    8   25 1
    28    9   26 1
    29   10   27 1
    30   13   28 1
    31   15   29 1
    32   18   30 1
    33   14   31 1
    34   16   32 1
@<TRIPOS>SUBSTRUCTURE
1 UNK 1 RESIDUE 1 _ UNK
@<SCITEGIC>ATOM_PROPERTY
Formal Charge
SciTegic.value.StringValue
1 0
2 0
3 0
4 0
5 0
6 0
7 0
8 0
9 0
10 0
11 0
12 0
13 0
14 0
15 0
16 0
17 0
18 0
19 0
20 0
21 0
22 0
23 0
24 0
25 0
26 0
27 0
28 0
29 0
30 0
31 0
32 0

@<SCITEGIC>ATOM_PROPERTY
pdb_tempFactor
SciTegic.value.DoubleValue
1 0.00
2 0.00
3 0.00
4 0.00
5 0.00
6 0.00
7 0.00
8 0.00
9 0.00
10 0.00
11 0.00
12 0.00
13 0.00
14 0.00
15 0.00
16 0.00
17 0.00
18 0.00
19 0.00
20 0.00
21 0.00
22 0.00
23 0.00
24 0.00
25 0.00
26 0.00
27 0.00
28 0.00
29 0.00
30 0.00
31 0.00
32 0.00

@<SCITEGIC>ATOM_PROPERTY
pdb_occupancy
SciTegic.value.DoubleValue
1 1.00
2 1.00
3 1.00
4 1.00
5 1.00
6 1.00
7 1.00
8 1.00
9 1.00
10 1.00
11 1.00
12 1.00
13 1.00
14 1.00
15 1.00
16 1.00
17 1.00
18 1.00
19 1.00
20 1.00
21 1.00
22 1.00
23 1.00
24 1.00
25 1.00
26 1.00
27 1.00
28 1.00
29 1.00
30 1.00
31 1.00
32 1.00

