#	Created by:	Discovery Studio
#	Creation time:	2018-10-05T09:13:07Z

@<TRIPOS>MOLECULE
CHEMBL329672
   28    30     1 0 0
PROTEIN
USER_CHARGES


@<TRIPOS>ATOM
      1 Cl1          29.342082   -2.286755   53.146855 Cl       1 UNK       -0.1770
      2 C2           28.748664   -0.738332   53.617824 C.ar     1 UNK        0.1770
      3 C3           29.607731    0.180273   54.031865 C.ar     1 UNK       -0.1500
      4 C4           29.163301    1.483636   54.434539 C.ar     1 UNK       -0.1500
      5 C5           27.845955    1.776560   54.389651 C.ar     1 UNK       -0.1500
      6 C6           26.849103    0.716841   53.911361 C.ar     1 UNK        0.1000
      7 N7           25.399703    0.899089   53.813551 N.pl3    1 UNK       -0.6000
      8 C8           24.435198    0.047841   54.508435 C.2      1 UNK        0.4100
      9 N9           24.800732   -0.756828   55.430165 N.2      1 UNK       -0.6200
     10 C10          23.817013   -1.635056   56.149367 C.2      1 UNK        0.4700
     11 N11          22.570629   -1.598114   55.851953 N.2      1 UNK       -0.6200
     12 C12          22.070555   -0.768104   54.875620 C.ar     1 UNK        0.3100
     13 C13          20.761716   -0.756488   54.591755 C.ar     1 UNK       -0.1500
     14 C14          20.246361    0.138005   53.544414 C.ar     1 UNK       -0.1500
     15 C15          21.109319    0.922125   52.899215 C.ar     1 UNK       -0.1500
     16 C16          22.534721    0.903574   53.214459 C.ar     1 UNK       -0.1500
     17 C17          22.996532    0.095109   54.160235 C.ar     1 UNK        0.0000
     18 C18          27.332065   -0.472465   53.552640 C.ar     1 UNK       -0.1500
     19 H1           30.623422   -0.046331   54.066198 H        1 UNK        0.1500
     20 H2           29.928424    2.206835   54.770373 H        1 UNK        0.1500
     21 H3           27.506914    2.741376   54.686522 H        1 UNK        0.1500
     22 H4           25.047206    1.682073   53.212569 H        1 UNK        0.4000
     23 H5           24.147995   -2.315214   56.933097 H        1 UNK        0.1500
     24 H6           20.097495   -1.389717   55.119725 H        1 UNK        0.1500
     25 H7           19.163059    0.164440   53.291867 H        1 UNK        0.1500
     26 H8           20.777016    1.549983   52.170168 H        1 UNK        0.1500
     27 H9           23.188136    1.533154   52.688212 H        1 UNK        0.1500
     28 H10          26.680909   -1.241389   53.213619 H        1 UNK        0.1500
@<TRIPOS>BOND
     1    1    2 1
     2    2    3 ar
     3    3    4 ar
     4    4    5 ar
     5    5    6 ar
     6    6    7 1
     7    7    8 1
     8    8    9 2
     9    9   10 1
    10   10   11 2
    11   11   12 1
    12   12   13 ar
    13   13   14 ar
    14   14   15 ar
    15   15   16 ar
    16   16   17 ar
    17    8   17 1
    18   12   17 ar
    19    6   18 ar
    20    2   18 ar
    21    3   19 1
    22    4   20 1
    23    5   21 1
    24    7   22 1
    25   10   23 1
    26   13   24 1
    27   14   25 1
    28   15   26 1
    29   16   27 1
    30   18   28 1
@<TRIPOS>SUBSTRUCTURE
1 UNK 1 RESIDUE 1 _ UNK
@<SCITEGIC>MOL_PROPERTY
TRIPOS_COMMENT
SciTegic.value.StringValue
> <Gold.Version>
5.3.0
> <Gold.Id.Protein>
1M17_traj_1ns_WTavg_model_1|1M17_traj_1ns_WTavg_5Awater_forGold_Pro|mol2
> <Gold.Protein.ActiveResidues>
LEU718  ALA743  CYS775  THR790  GLN791  LEU792  MET793  PRO794  GLY796  LEU844
THR854
> <Gold.Score>
Fitness  S(hb_ext) S(vdw_ext)  S(hb_int)    S(int)      intcor
50.04       1.84      37.10       0.00      -2.81      -9.95
> <Gold.Goldscore.Fitness>
50.0445
> <Gold.Goldscore.Internal.Vdw>
-5.8841
> <Gold.Goldscore.Internal.Torsion>
-6.8755
> <Gold.Goldscore.External.Vdw>
37.1039
> <Gold.Goldscore.Internal.HBond>
0.0000
> <Gold.Goldscore.External.HBond>
1.8375
> <Gold.Goldscore.Internal.Correction>
-9.9489
> <Gold.Goldscore.Reference.RMSD>
6.3488
> <Gold.Goldscore.Hbonds>
donor molecule, donor type, donor heavy atom, donor atom, acceptor molecule, acceptor atom, score
P1  H  1548  1549       L1    11  0.92
> <Gold.Goldscore.Internal.Vdw.Weighted>
-5.8841
> <Gold.Goldscore.Internal.Torsion.Weighted>
-6.8755
> <Gold.Goldscore.External.Vdw.Weighted>
51.0179
> <Gold.Goldscore.Internal.HBond.Weighted>
0.0000
> <Gold.Goldscore.External.HBond.Weighted>
1.8375
> <Gold.Goldscore.Internal.Correction.Weighted>
-9.9489
> <Gold.Reference.RMSD>
6.3488

@<SCITEGIC>MOL_PROPERTY
REMARK99
SciTegic.value.StringValue
REMARK  99  MacroMolecule created from Mol2 file
REMARK  99  CHEMBL329672|CHEMBL329672|mol2|1|dock5
REMARK  99  PROTEIN
REMARK  99  USER_CHARGES
REMARK  99  
REMARK  99  

@<SCITEGIC>ATOM_PROPERTY
Formal Charge
SciTegic.value.StringValue
1 0
2 0
3 0
4 0
5 0
6 0
7 0
8 0
9 0
10 0
11 0
12 0
13 0
14 0
15 0
16 0
17 0
18 0
19 0
20 0
21 0
22 0
23 0
24 0
25 0
26 0
27 0
28 0

@<SCITEGIC>ATOM_PROPERTY
pdb_tempFactor
SciTegic.value.DoubleValue
1 0.00
2 0.00
3 0.00
4 0.00
5 0.00
6 0.00
7 0.00
8 0.00
9 0.00
10 0.00
11 0.00
12 0.00
13 0.00
14 0.00
15 0.00
16 0.00
17 0.00
18 0.00
19 0.00
20 0.00
21 0.00
22 0.00
23 0.00
24 0.00
25 0.00
26 0.00
27 0.00
28 0.00

@<SCITEGIC>ATOM_PROPERTY
pdb_occupancy
SciTegic.value.DoubleValue
1 1.00
2 1.00
3 1.00
4 1.00
5 1.00
6 1.00
7 1.00
8 1.00
9 1.00
10 1.00
11 1.00
12 1.00
13 1.00
14 1.00
15 1.00
16 1.00
17 1.00
18 1.00
19 1.00
20 1.00
21 1.00
22 1.00
23 1.00
24 1.00
25 1.00
26 1.00
27 1.00
28 1.00

