#	Created by:	Discovery Studio
#	Creation time:	2018-10-05T09:05:13Z

@<TRIPOS>MOLECULE
CHEMBL289959
   28    30     1 0 0
PROTEIN
USER_CHARGES


@<TRIPOS>ATOM
      1 N1           25.456824    0.921603   53.805153 N.pl3    1 UNK       -0.6000
      2 C2           26.901249    0.694090   53.784803 C.ar     1 UNK        0.1000
      3 C3           27.680274    1.699454   54.202989 C.ar     1 UNK       -0.1500
      4 C4           29.128138    1.565572   54.218565 C.ar     1 UNK       -0.1500
      5 C5           29.708395    0.440831   53.817149 C.ar     1 UNK       -0.1500
      6 C6           28.921506   -0.688221   53.351513 C.ar     1 UNK       -0.1500
      7 C7           27.574644   -0.596373   53.324740 C.ar     1 UNK       -0.1500
      8 C8           24.474829    0.032961   54.496255 C.2      1 UNK        0.4100
      9 N9           24.825959   -0.851148   55.355421 N.2      1 UNK       -0.6200
     10 C10          23.836846   -1.736416   56.042595 C.2      1 UNK        0.4700
     11 N11          22.584824   -1.634598   55.787204 N.2      1 UNK       -0.6200
     12 C12          22.088270   -0.723027   54.883968 C.ar     1 UNK        0.3100
     13 C13          20.772741   -0.643544   54.640955 C.ar     1 UNK       -0.1500
     14 C14          20.265862    0.339516   53.670657 C.ar     1 UNK       -0.1500
     15 C15          21.141599    1.132911   53.053429 C.ar     1 UNK       -0.1500
     16 C16          22.573631    1.039968   53.323822 C.ar     1 UNK       -0.1500
     17 C17          23.028772    0.153320   54.198803 C.ar     1 UNK        0.0000
     18 H1           25.088788    1.762006   53.302299 H        1 UNK        0.4000
     19 H2           27.248994    2.614068   54.531292 H        1 UNK        0.1500
     20 H3           29.729733    2.378033   54.555252 H        1 UNK        0.1500
     21 H4           30.746069    0.365567   53.836183 H        1 UNK        0.1500
     22 H5           29.459670   -1.599168   53.029634 H        1 UNK        0.1500
     23 H6           26.986604   -1.428600   52.981067 H        1 UNK        0.1500
     24 H7           24.165509   -2.479745   56.769270 H        1 UNK        0.1500
     25 H8           20.095199   -1.287287   55.146040 H        1 UNK        0.1500
     26 H9           19.178166    0.423897   53.452454 H        1 UNK        0.1500
     27 H10          20.814471    1.820429   52.378259 H        1 UNK        0.1500
     28 H11          23.239054    1.678771   52.821753 H        1 UNK        0.1500
@<TRIPOS>BOND
     1    1    2 1
     2    2    3 ar
     3    3    4 ar
     4    4    5 ar
     5    5    6 ar
     6    6    7 ar
     7    2    7 ar
     8    1    8 1
     9    8    9 2
    10    9   10 1
    11   10   11 2
    12   11   12 1
    13   12   13 ar
    14   13   14 ar
    15   14   15 ar
    16   15   16 ar
    17   16   17 ar
    18    8   17 1
    19   12   17 ar
    20    1   18 1
    21    3   19 1
    22    4   20 1
    23    5   21 1
    24    6   22 1
    25    7   23 1
    26   10   24 1
    27   13   25 1
    28   14   26 1
    29   15   27 1
    30   16   28 1
@<TRIPOS>SUBSTRUCTURE
1 UNK 1 RESIDUE 1 C UNK
@<SCITEGIC>MOL_PROPERTY
TRIPOS_COMMENT
SciTegic.value.StringValue
> <Gold.Version>
5.3.0
> <Gold.Id.Protein>
1M17_traj_1ns_WTavg_model_1|1M17_traj_1ns_WTavg_5Awater_forGold_Pro|mol2
> <Gold.Protein.ActiveResidues>
LEU718  ALA743  CYS775  THR790  GLN791  LEU792  MET793  PRO794  GLY796  LEU844
THR854
> <Gold.Score>
Fitness  S(hb_ext) S(vdw_ext)  S(hb_int)    S(int)      intcor
44.69       1.84      33.13       0.00      -2.71     -11.82
> <Gold.Goldscore.Fitness>
44.6899
> <Gold.Goldscore.Internal.Vdw>
-7.2553
> <Gold.Goldscore.Internal.Torsion>
-7.2818
> <Gold.Goldscore.External.Vdw>
33.1344
> <Gold.Goldscore.Internal.HBond>
0.0000
> <Gold.Goldscore.External.HBond>
1.8439
> <Gold.Goldscore.Internal.Correction>
-11.8232
> <Gold.Goldscore.Reference.RMSD>
6.6147
> <Gold.Goldscore.Hbonds>
donor molecule, donor type, donor heavy atom, donor atom, acceptor molecule, acceptor atom, score
P1  H  1548  1549       L1    11  0.92
> <Gold.Goldscore.Internal.Vdw.Weighted>
-7.2553
> <Gold.Goldscore.Internal.Torsion.Weighted>
-7.2818
> <Gold.Goldscore.External.Vdw.Weighted>
45.5599
> <Gold.Goldscore.Internal.HBond.Weighted>
0.0000
> <Gold.Goldscore.External.HBond.Weighted>
1.8439
> <Gold.Goldscore.Internal.Correction.Weighted>
-11.8232
> <Gold.Reference.RMSD>
6.6147

@<SCITEGIC>MOL_PROPERTY
REMARK99
SciTegic.value.StringValue
REMARK  99  MacroMolecule created from Mol2 file
REMARK  99  CHEMBL289959|CHEMBL289959|mol2|1|dock3
REMARK  99  PROTEIN
REMARK  99  USER_CHARGES
REMARK  99  
REMARK  99  

@<SCITEGIC>ATOM_PROPERTY
Formal Charge
SciTegic.value.StringValue
1 0
2 0
3 0
4 0
5 0
6 0
7 0
8 0
9 0
10 0
11 0
12 0
13 0
14 0
15 0
16 0
17 0
18 0
19 0
20 0
21 0
22 0
23 0
24 0
25 0
26 0
27 0
28 0

@<SCITEGIC>ATOM_PROPERTY
pdb_tempFactor
SciTegic.value.DoubleValue
1 0.00
2 0.00
3 0.00
4 0.00
5 0.00
6 0.00
7 0.00
8 0.00
9 0.00
10 0.00
11 0.00
12 0.00
13 0.00
14 0.00
15 0.00
16 0.00
17 0.00
18 0.00
19 0.00
20 0.00
21 0.00
22 0.00
23 0.00
24 0.00
25 0.00
26 0.00
27 0.00
28 0.00

@<SCITEGIC>ATOM_PROPERTY
pdb_occupancy
SciTegic.value.DoubleValue
1 1.00
2 1.00
3 1.00
4 1.00
5 1.00
6 1.00
7 1.00
8 1.00
9 1.00
10 1.00
11 1.00
12 1.00
13 1.00
14 1.00
15 1.00
16 1.00
17 1.00
18 1.00
19 1.00
20 1.00
21 1.00
22 1.00
23 1.00
24 1.00
25 1.00
26 1.00
27 1.00
28 1.00

