#	Created by:	Discovery Studio
#	Creation time:	2018-10-05T09:12:21Z

@<TRIPOS>MOLECULE
CHEMBL554053
   42    44     1 0 0
PROTEIN
USER_CHARGES


@<TRIPOS>ATOM
      1 C1           25.203149    3.967888   54.666747 C.3      1 UNK        0.0000
      2 C2           25.029874    2.828639   53.641892 C.3      1 UNK        0.3691
      3 N3           25.391795    1.337347   54.362290 N.pl3    1 UNK       -0.5691
      4 C4           26.786342    0.908731   54.319022 C.ar     1 UNK        0.1000
      5 C5           27.810533    1.829005   54.082872 C.ar     1 UNK       -0.1500
      6 C6           29.131442    1.416267   54.005957 C.ar     1 UNK       -0.1500
      7 C7           29.445795    0.076000   54.153122 C.ar     1 UNK       -0.1500
      8 C8           28.447546   -0.854321   54.384619 C.ar     1 UNK       -0.1500
      9 C9           27.120734   -0.440779   54.473845 C.ar     1 UNK       -0.1500
     10 C10          24.319105    0.232530   54.883342 C.2      1 UNK        0.4100
     11 N11          24.581606   -0.739183   55.677426 N.2      1 UNK       -0.6200
     12 C12          23.732685   -1.808915   56.080667 C.2      1 UNK        0.4700
     13 N13          22.555749   -1.842491   55.650960 N.2      1 UNK       -0.6200
     14 C14          22.056852   -0.869672   54.751016 C.ar     1 UNK        0.3100
     15 C15          20.815150   -0.934717   54.292135 C.ar     1 UNK       -0.1500
     16 C16          20.323739    0.101606   53.328247 C.ar     1 UNK        0.0825
     17 O17          19.040232    0.100492   52.849594 O.3      1 UNK       -0.3625
     18 C18          18.093390   -0.769815   53.579226 C.3      1 UNK        0.2800
     19 C19          21.120223    1.075665   52.898599 C.ar     1 UNK        0.0825
     20 O20          20.566699    2.094700   51.944618 O.3      1 UNK       -0.3625
     21 C21          21.551448    2.687735   51.029806 C.3      1 UNK        0.2800
     22 C22          22.503444    1.105816   53.408424 C.ar     1 UNK       -0.1500
     23 C23          22.942472    0.216334   54.299962 C.ar     1 UNK        0.0000
     24 H1           24.988140    4.929482   54.175054 H        1 UNK        0.0000
     25 H2           26.239732    3.972690   55.034986 H        1 UNK        0.0000
     26 H3           24.514708    3.820468   55.505478 H        1 UNK        0.0000
     27 H4           23.836401    2.949313   53.135143 H        1 UNK        0.0000
     28 H5           25.762681    3.010120   52.842933 H        1 UNK        0.0000
     29 H6           27.592944    2.857092   53.959643 H        1 UNK        0.1500
     30 H7           29.901003    2.124303   53.828145 H        1 UNK        0.1500
     31 H8           30.426565   -0.233417   54.087636 H        1 UNK        0.1500
     32 H9           28.718288   -1.882625   54.485286 H        1 UNK        0.1500
     33 H10          26.354183   -1.168371   54.648435 H        1 UNK        0.1500
     34 H11          24.089509   -2.558640   56.754290 H        1 UNK        0.1500
     35 H12          20.177675   -1.726947   54.616518 H        1 UNK        0.1500
     36 H13          17.071514   -0.568658   53.227213 H        1 UNK        0.0000
     37 H14          18.151462   -0.563958   54.658720 H        1 UNK        0.0000
     38 H15          18.339354   -1.826282   53.390081 H        1 UNK        0.0000
     39 H16          21.027329    3.264964   50.255014 H        1 UNK        0.0000
     40 H17          22.146628    1.895015   50.558992 H        1 UNK        0.0000
     41 H18          22.215719    3.360251   51.596559 H        1 UNK        0.0000
     42 H19          23.142647    1.822281   53.087891 H        1 UNK        0.1500
@<TRIPOS>BOND
     1    1    2 1
     2    2    3 1
     3    3    4 1
     4    4    5 ar
     5    5    6 ar
     6    6    7 ar
     7    7    8 ar
     8    8    9 ar
     9    4    9 ar
    10    3   10 1
    11   10   11 2
    12   11   12 1
    13   12   13 2
    14   13   14 1
    15   14   15 ar
    16   15   16 ar
    17   16   17 1
    18   17   18 1
    19   16   19 ar
    20   19   20 1
    21   20   21 1
    22   19   22 ar
    23   22   23 ar
    24   10   23 1
    25   14   23 ar
    26    1   24 1
    27    1   25 1
    28    1   26 1
    29    2   27 1
    30    2   28 1
    31    5   29 1
    32    6   30 1
    33    7   31 1
    34    8   32 1
    35    9   33 1
    36   12   34 1
    37   15   35 1
    38   18   36 1
    39   18   37 1
    40   18   38 1
    41   21   39 1
    42   21   40 1
    43   21   41 1
    44   22   42 1
@<TRIPOS>SUBSTRUCTURE
1 UNK 1 RESIDUE 1 _ UNK
@<SCITEGIC>MOL_PROPERTY
TRIPOS_COMMENT
SciTegic.value.StringValue
> <Gold.Version>
5.3.0
> <Gold.Id.Protein>
1M17_traj_1ns_WTavg_model_1|1M17_traj_1ns_WTavg_5Awater_forGold_Pro|mol2
> <Gold.Protein.ActiveResidues>
LEU718  ALA743  CYS775  THR790  GLN791  LEU792  MET793  PRO794  GLY796  LEU844
THR854
> <Gold.Score>
Fitness  S(hb_ext) S(vdw_ext)  S(hb_int)    S(int)      intcor
47.45       1.64      33.61       0.00      -0.40      -7.92
> <Gold.Goldscore.Fitness>
47.4489
> <Gold.Goldscore.Internal.Vdw>
-1.0377
> <Gold.Goldscore.Internal.Torsion>
-7.2834
> <Gold.Goldscore.External.Vdw>
33.6097
> <Gold.Goldscore.Internal.HBond>
0.0000
> <Gold.Goldscore.External.HBond>
1.6381
> <Gold.Goldscore.Internal.Correction>
-7.9187
> <Gold.Goldscore.Reference.RMSD>
4.7116
> <Gold.Goldscore.Hbonds>
donor molecule, donor type, donor heavy atom, donor atom, acceptor molecule, acceptor atom, score
P1  H  1548  1549       L1    13  0.82
> <Gold.Goldscore.Internal.Vdw.Weighted>
-1.0377
> <Gold.Goldscore.Internal.Torsion.Weighted>
-7.2834
> <Gold.Goldscore.External.Vdw.Weighted>
46.2133
> <Gold.Goldscore.Internal.HBond.Weighted>
0.0000
> <Gold.Goldscore.External.HBond.Weighted>
1.6381
> <Gold.Goldscore.Internal.Correction.Weighted>
-7.9187
> <Gold.Reference.RMSD>
4.7116

@<SCITEGIC>MOL_PROPERTY
REMARK99
SciTegic.value.StringValue
REMARK  99  MacroMolecule created from Mol2 file
REMARK  99  CHEMBL554053|CHEMBL554053|mol2|1|dock1
REMARK  99  PROTEIN
REMARK  99  USER_CHARGES
REMARK  99  
REMARK  99  

@<SCITEGIC>MOL_PROPERTY
Clean Energy
SciTegic.value.DoubleValue
84.675644

@<SCITEGIC>ATOM_PROPERTY
Formal Charge
SciTegic.value.StringValue
1 0
2 0
3 0
4 0
5 0
6 0
7 0
8 0
9 0
10 0
11 0
12 0
13 0
14 0
15 0
16 0
17 0
18 0
19 0
20 0
21 0
22 0
23 0
24 0
25 0
26 0
27 0
28 0
29 0
30 0
31 0
32 0
33 0
34 0
35 0
36 0
37 0
38 0
39 0
40 0
41 0
42 0

@<SCITEGIC>ATOM_PROPERTY
pdb_tempFactor
SciTegic.value.DoubleValue
1 0.00
2 0.00
3 0.00
4 0.00
5 0.00
6 0.00
7 0.00
8 0.00
9 0.00
10 0.00
11 0.00
12 0.00
13 0.00
14 0.00
15 0.00
16 0.00
17 0.00
18 0.00
19 0.00
20 0.00
21 0.00
22 0.00
23 0.00
24 0.00
25 0.00
26 0.00
27 0.00
28 0.00
29 0.00
30 0.00
31 0.00
32 0.00
33 0.00
34 0.00
35 0.00
36 0.00
37 0.00
38 0.00
39 0.00
40 0.00
41 0.00
42 0.00

@<SCITEGIC>ATOM_PROPERTY
pdb_occupancy
SciTegic.value.DoubleValue
1 1.00
2 1.00
3 1.00
4 1.00
5 1.00
6 1.00
7 1.00
8 1.00
9 1.00
10 1.00
11 1.00
12 1.00
13 1.00
14 1.00
15 1.00
16 1.00
17 1.00
18 1.00
19 1.00
20 1.00
21 1.00
22 1.00
23 1.00
24 1.00
25 1.00
26 1.00
27 1.00
28 1.00
29 1.00
30 1.00
31 1.00
32 1.00
33 1.00
34 1.00
35 1.00
36 1.00
37 1.00
38 1.00
39 1.00
40 1.00
41 1.00
42 1.00

