#	Created by:	Discovery Studio
#	Creation time:	2018-10-05T11:04:30Z

@<TRIPOS>MOLECULE
CHEMBL447230
   39    41     1 0 0
PROTEIN
USER_CHARGES


@<TRIPOS>ATOM
      1 C1           17.965873   -0.060492   53.755142 C.3      1 UNK        0.2800
      2 O2           19.007971   -0.524754   54.422742 O.3      1 UNK       -0.3625
      3 C3           20.229362   -0.169636   54.176590 C.2      1 UNK        0.0825
      4 C4           20.914178   -0.853528   55.060771 C.2      1 UNK       -0.1500
      5 C5           22.210255   -0.764279   55.206489 C.ar     1 UNK        0.3100
      6 N6           22.679594   -1.479472   56.120715 N.ar     1 UNK       -0.6200
      7 C7           23.951397   -1.449313   56.408124 C.ar     1 UNK        0.4700
      8 N8           24.727673   -0.634074   55.790753 N.ar     1 UNK       -0.6200
      9 C9           24.279736    0.256420   54.751648 C.ar     1 UNK        0.4100
     10 N10          25.421609    1.138916   54.228880 N.pl3    1 UNK       -0.5691
     11 C11          24.916221    2.460202   53.754679 C.3      1 UNK        0.3691
     12 C12          26.903839    0.792650   54.020038 C.ar     1 UNK        0.1000
     13 C13          27.193161   -0.390865   53.447392 C.ar     1 UNK       -0.1500
     14 C14          28.560968   -0.820848   53.221975 C.ar     1 UNK       -0.1500
     15 C15          29.577774   -0.051467   53.575642 C.ar     1 UNK       -0.1500
     16 C16          29.351761    1.231359   54.204076 C.ar     1 UNK        0.1110
     17 Br17         30.853574    2.322969   54.692894 Br       1 UNK       -0.1110
     18 C18          28.103126    1.648623   54.437260 C.ar     1 UNK       -0.1500
     19 C19          22.977956    0.156263   54.410768 C.ar     1 UNK        0.0000
     20 C20          22.255236    0.900453   53.311648 C.2      1 UNK       -0.1500
     21 C21          20.920359    0.821683   53.134731 C.2      1 UNK        0.0825
     22 O22          20.358720    1.739528   51.935859 O.3      1 UNK       -0.3625
     23 C23          21.068093    2.630080   51.003280 C.3      1 UNK        0.2800
     24 H1           17.876669    1.020491   53.933941 H        1 UNK        0.0000
     25 H2           17.056531   -0.557860   54.105948 H        1 UNK        0.0000
     26 H3           18.110777   -0.237905   52.682155 H        1 UNK        0.0000
     27 H4           20.384826   -1.509018   55.722252 H        1 UNK        0.1500
     28 H5           24.345255   -2.085823   57.168599 H        1 UNK        0.1500
     29 H6           23.965175    2.746599   54.202943 H        1 UNK        0.0000
     30 H7           24.822338    2.428553   52.661246 H        1 UNK        0.0000
     31 H8           25.673111    3.222760   53.991321 H        1 UNK        0.0000
     32 H9           26.416035   -1.039828   53.143995 H        1 UNK        0.1500
     33 H10          28.748833   -1.768398   52.765839 H        1 UNK        0.1500
     34 H11          30.543527   -0.377376   53.404679 H        1 UNK        0.1500
     35 H12          27.968879    2.601121   54.914022 H        1 UNK        0.1500
     36 H13          22.808915    1.501600   52.680474 H        1 UNK        0.1500
     37 H14          21.759801    2.035916   50.389838 H        1 UNK        0.0000
     38 H15          21.640538    3.377266   51.571246 H        1 UNK        0.0000
     39 H16          20.343858    3.133774   50.349260 H        1 UNK        0.0000
@<TRIPOS>BOND
     1    1    2 1
     2    2    3 1
     3    3    4 2
     4    4    5 1
     5    5    6 ar
     6    6    7 ar
     7    7    8 ar
     8    8    9 ar
     9    9   10 1
    10   10   11 1
    11   10   12 1
    12   12   13 ar
    13   13   14 ar
    14   14   15 ar
    15   15   16 ar
    16   16   17 1
    17   16   18 ar
    18   12   18 ar
    19    9   19 ar
    20    5   19 ar
    21   19   20 1
    22   20   21 2
    23    3   21 1
    24   21   22 1
    25   22   23 1
    26    1   24 1
    27    1   25 1
    28    1   26 1
    29    4   27 1
    30    7   28 1
    31   11   29 1
    32   11   30 1
    33   11   31 1
    34   13   32 1
    35   14   33 1
    36   15   34 1
    37   18   35 1
    38   20   36 1
    39   23   37 1
    40   23   38 1
    41   23   39 1
@<TRIPOS>SUBSTRUCTURE
1 UNK 1 RESIDUE 1 _ UNK
@<SCITEGIC>MOL_PROPERTY
TRIPOS_COMMENT
SciTegic.value.StringValue
> <Gold.Version>
5.3.0
> <Gold.Id.Protein>
1M17_traj_1ns_WTavg_model_1|1M17_traj_1ns_WTavg_5Awater_forGold_Pro|mol2
> <Gold.Protein.ActiveResidues>
LEU718  ALA743  CYS775  THR790  GLN791  LEU792  MET793  PRO794  GLY796  LEU844
THR854
> <Gold.Score>
Fitness  S(hb_ext) S(vdw_ext)  S(hb_int)    S(int)      intcor
56.62       1.78      43.12       0.00      -4.46      -2.46
> <Gold.Goldscore.Fitness>
56.6161
> <Gold.Goldscore.Internal.Vdw>
0.0558
> <Gold.Goldscore.Internal.Torsion>
-6.9748
> <Gold.Goldscore.External.Vdw>
43.1247
> <Gold.Goldscore.Internal.HBond>
0.0000
> <Gold.Goldscore.External.HBond>
1.7830
> <Gold.Goldscore.Internal.Correction>
-2.4555
> <Gold.Goldscore.Reference.RMSD>
7.7439
> <Gold.Goldscore.Hbonds>
donor molecule, donor type, donor heavy atom, donor atom, acceptor molecule, acceptor atom, score
P1  H  1548  1549       L1     6  0.89
> <Gold.Goldscore.Internal.Vdw.Weighted>
0.0558
> <Gold.Goldscore.Internal.Torsion.Weighted>
-6.9748
> <Gold.Goldscore.External.Vdw.Weighted>
59.2965
> <Gold.Goldscore.Internal.HBond.Weighted>
0.0000
> <Gold.Goldscore.External.HBond.Weighted>
1.7830
> <Gold.Goldscore.Internal.Correction.Weighted>
-2.4555
> <Gold.Reference.RMSD>
7.7439

@<SCITEGIC>MOL_PROPERTY
REMARK99
SciTegic.value.StringValue
REMARK  99  MacroMolecule created from Mol2 file
REMARK  99  CHEMBL447230|CHEMBL447230|mol2|1|dock3
REMARK  99  PROTEIN
REMARK  99  USER_CHARGES
REMARK  99  
REMARK  99  

@<SCITEGIC>ATOM_PROPERTY
Formal Charge
SciTegic.value.StringValue
1 0
2 0
3 0
4 0
5 0
6 0
7 0
8 0
9 0
10 0
11 0
12 0
13 0
14 0
15 0
16 0
17 0
18 0
19 0
20 0
21 0
22 0
23 0
24 0
25 0
26 0
27 0
28 0
29 0
30 0
31 0
32 0
33 0
34 0
35 0
36 0
37 0
38 0
39 0

@<SCITEGIC>ATOM_PROPERTY
pdb_tempFactor
SciTegic.value.DoubleValue
1 0.00
2 0.00
3 0.00
4 0.00
5 0.00
6 0.00
7 0.00
8 0.00
9 0.00
10 0.00
11 0.00
12 0.00
13 0.00
14 0.00
15 0.00
16 0.00
17 0.00
18 0.00
19 0.00
20 0.00
21 0.00
22 0.00
23 0.00
24 0.00
25 0.00
26 0.00
27 0.00
28 0.00
29 0.00
30 0.00
31 0.00
32 0.00
33 0.00
34 0.00
35 0.00
36 0.00
37 0.00
38 0.00
39 0.00

@<SCITEGIC>ATOM_PROPERTY
pdb_occupancy
SciTegic.value.DoubleValue
1 1.00
2 1.00
3 1.00
4 1.00
5 1.00
6 1.00
7 1.00
8 1.00
9 1.00
10 1.00
11 1.00
12 1.00
13 1.00
14 1.00
15 1.00
16 1.00
17 1.00
18 1.00
19 1.00
20 1.00
21 1.00
22 1.00
23 1.00
24 1.00
25 1.00
26 1.00
27 1.00
28 1.00
29 1.00
30 1.00
31 1.00
32 1.00
33 1.00
34 1.00
35 1.00
36 1.00
37 1.00
38 1.00
39 1.00

