#	Created by:	Discovery Studio
#	Creation time:	2018-10-05T09:06:25Z

@<TRIPOS>MOLECULE
CHEMBL208594
   36    38     1 0 0
PROTEIN
USER_CHARGES


@<TRIPOS>ATOM
      1 C1           21.063339    2.910460   50.872706 C.3      1 UNK        0.3691
      2 N2           20.193348    2.006683   51.721749 N.pl3    1 UNK       -0.8691
      3 C3           20.727595    1.045391   52.788272 C.ar     1 UNK        0.1000
      4 C4           19.930625    0.224445   53.515662 C.ar     1 UNK       -0.1500
      5 C5           20.558231   -0.711255   54.570376 C.ar     1 UNK       -0.1500
      6 C6           21.889080   -0.729214   54.782828 C.ar     1 UNK        0.3100
      7 N7           22.462534   -1.613630   55.780035 N.2      1 UNK       -0.6200
      8 C8           23.713820   -1.645715   55.999907 C.2      1 UNK        0.4700
      9 N9           24.612992   -0.776806   55.234988 N.2      1 UNK       -0.6200
     10 C10          24.297326    0.071323   54.310598 C.2      1 UNK        0.4100
     11 N11          25.590208    0.780340   53.767922 N.pl3    1 UNK       -0.6000
     12 C12          27.039503    0.687859   53.977607 C.ar     1 UNK        0.1000
     13 C13          27.618088   -0.397666   53.428573 C.ar     1 UNK       -0.1500
     14 C14          29.050086   -0.632838   53.547978 C.ar     1 UNK       -0.1500
     15 C15          29.811696    0.227570   54.205602 C.ar     1 UNK       -0.1500
     16 C16          29.215453    1.399434   54.802172 C.ar     1 UNK       -0.1435
     17 C17          30.077612    2.386017   55.555467 C.3      1 UNK        0.1435
     18 C18          27.903140    1.630309   54.701158 C.ar     1 UNK       -0.1500
     19 C19          22.786449    0.174702   53.982903 C.ar     1 UNK        0.0000
     20 C20          22.247986    0.993993   53.063625 C.ar     1 UNK       -0.1500
     21 H1           21.807580    2.313155   50.326268 H        1 UNK        0.0000
     22 H2           21.567734    3.639828   51.522791 H        1 UNK        0.0000
     23 H3           20.427508    3.462173   50.164970 H        1 UNK        0.0000
     24 H4           19.174373    2.058968   51.553091 H        1 UNK        0.4000
     25 H5           18.831205    0.215739   53.363968 H        1 UNK        0.1500
     26 H6           19.921711   -1.376177   55.163069 H        1 UNK        0.1500
     27 H7           24.109142   -2.303334   56.737588 H        1 UNK        0.1500
     28 H8           25.340977    1.503871   53.085783 H        1 UNK        0.4000
     29 H9           27.027549   -1.117457   52.886925 H        1 UNK        0.1500
     30 H10          29.483029   -1.495509   53.107063 H        1 UNK        0.1500
     31 H11          30.848089    0.057564   54.292361 H        1 UNK        0.1500
     32 H12          31.141239    2.236260   55.317867 H        1 UNK        0.0000
     33 H13          29.894516    2.265921   56.632498 H        1 UNK        0.0000
     34 H14          29.756544    3.405272   55.297178 H        1 UNK        0.0000
     35 H15          27.513062    2.475585   55.136850 H        1 UNK        0.1500
     36 H16          22.878446    1.602612   52.532288 H        1 UNK        0.1500
@<TRIPOS>BOND
     1    1    2 1
     2    2    3 1
     3    3    4 ar
     4    4    5 ar
     5    5    6 ar
     6    6    7 1
     7    7    8 2
     8    8    9 1
     9    9   10 2
    10   10   11 1
    11   11   12 1
    12   12   13 ar
    13   13   14 ar
    14   14   15 ar
    15   15   16 ar
    16   16   17 1
    17   16   18 ar
    18   12   18 ar
    19   10   19 1
    20    6   19 ar
    21   19   20 ar
    22    3   20 ar
    23    1   21 1
    24    1   22 1
    25    1   23 1
    26    2   24 1
    27    4   25 1
    28    5   26 1
    29    8   27 1
    30   11   28 1
    31   13   29 1
    32   14   30 1
    33   15   31 1
    34   17   32 1
    35   17   33 1
    36   17   34 1
    37   18   35 1
    38   20   36 1
@<TRIPOS>SUBSTRUCTURE
1 UNK 1 RESIDUE 1 C UNK
@<SCITEGIC>MOL_PROPERTY
TRIPOS_COMMENT
SciTegic.value.StringValue
> <Gold.Version>
5.3.0
> <Gold.Id.Protein>
1M17_traj_1ns_WTavg_model_1|1M17_traj_1ns_WTavg_5Awater_forGold_Pro|mol2
> <Gold.Protein.ActiveResidues>
LEU718  ALA743  CYS775  THR790  GLN791  LEU792  MET793  PRO794  GLY796  LEU844
THR854
> <Gold.Score>
Fitness  S(hb_ext) S(vdw_ext)  S(hb_int)    S(int)      intcor
52.94       1.98      39.74       0.00      -3.68      -3.19
> <Gold.Goldscore.Fitness>
52.9425
> <Gold.Goldscore.Internal.Vdw>
0.8041
> <Gold.Goldscore.Internal.Torsion>
-7.6753
> <Gold.Goldscore.External.Vdw>
39.7369
> <Gold.Goldscore.Internal.HBond>
0.0000
> <Gold.Goldscore.External.HBond>
1.9832
> <Gold.Goldscore.Internal.Correction>
-3.1923
> <Gold.Goldscore.Reference.RMSD>
7.5449
> <Gold.Goldscore.Hbonds>
donor molecule, donor type, donor heavy atom, donor atom, acceptor molecule, acceptor atom, score
P1  H  1548  1549       L1     7  0.99
> <Gold.Goldscore.Internal.Vdw.Weighted>
0.8041
> <Gold.Goldscore.Internal.Torsion.Weighted>
-7.6753
> <Gold.Goldscore.External.Vdw.Weighted>
54.6382
> <Gold.Goldscore.Internal.HBond.Weighted>
0.0000
> <Gold.Goldscore.External.HBond.Weighted>
1.9832
> <Gold.Goldscore.Internal.Correction.Weighted>
-3.1923
> <Gold.Reference.RMSD>
7.5449

@<SCITEGIC>MOL_PROPERTY
REMARK99
SciTegic.value.StringValue
REMARK  99  MacroMolecule created from Mol2 file
REMARK  99  CHEMBL208594|CHEMBL208594|mol2|1|dock1
REMARK  99  PROTEIN
REMARK  99  USER_CHARGES
REMARK  99  
REMARK  99  

@<SCITEGIC>ATOM_PROPERTY
Formal Charge
SciTegic.value.StringValue
1 0
2 0
3 0
4 0
5 0
6 0
7 0
8 0
9 0
10 0
11 0
12 0
13 0
14 0
15 0
16 0
17 0
18 0
19 0
20 0
21 0
22 0
23 0
24 0
25 0
26 0
27 0
28 0
29 0
30 0
31 0
32 0
33 0
34 0
35 0
36 0

@<SCITEGIC>ATOM_PROPERTY
pdb_tempFactor
SciTegic.value.DoubleValue
1 0.00
2 0.00
3 0.00
4 0.00
5 0.00
6 0.00
7 0.00
8 0.00
9 0.00
10 0.00
11 0.00
12 0.00
13 0.00
14 0.00
15 0.00
16 0.00
17 0.00
18 0.00
19 0.00
20 0.00
21 0.00
22 0.00
23 0.00
24 0.00
25 0.00
26 0.00
27 0.00
28 0.00
29 0.00
30 0.00
31 0.00
32 0.00
33 0.00
34 0.00
35 0.00
36 0.00

@<SCITEGIC>ATOM_PROPERTY
pdb_occupancy
SciTegic.value.DoubleValue
1 1.00
2 1.00
3 1.00
4 1.00
5 1.00
6 1.00
7 1.00
8 1.00
9 1.00
10 1.00
11 1.00
12 1.00
13 1.00
14 1.00
15 1.00
16 1.00
17 1.00
18 1.00
19 1.00
20 1.00
21 1.00
22 1.00
23 1.00
24 1.00
25 1.00
26 1.00
27 1.00
28 1.00
29 1.00
30 1.00
31 1.00
32 1.00
33 1.00
34 1.00
35 1.00
36 1.00

