#	Created by:	Discovery Studio
#	Creation time:	2018-10-03T22:08:00Z

@<TRIPOS>MOLECULE
CHEMBL65250
   38    40     1 0 0
PROTEIN
USER_CHARGES


@<TRIPOS>ATOM
      1 C1           29.028880   -3.440190   53.305570 C.1      1 MOL1002   -0.1147
      2 C2           28.900220   -2.254080   53.517740 C.1      1 MOL1002   -0.0704
      3 C3           28.551620   -0.880530   53.768840 C.ar     1 MOL1002    0.0263
      4 C4           27.188050   -0.612040   53.920670 C.ar     1 MOL1002   -0.0229
      5 C5           26.740130    0.693700   54.113000 C.ar     1 MOL1002    0.0408
      6 N1           25.360310    0.975360   54.186050 N.pl3    1 MOL1002   -0.3396
      7 C6           24.435470    0.129980   54.683780 C.ar     1 MOL1002    0.1413
      8 C7           23.063100    0.206170   54.244540 C.ar     1 MOL1002    0.0458
      9 C8           22.582630    1.199670   53.359410 C.ar     1 MOL1002   -0.0159
     10 C9           21.280880    1.150590   52.933870 C.ar     1 MOL1002    0.1062
     11 O1           20.704570    2.066060   52.105210 O.3      1 MOL1002   -0.3409
     12 C10          21.456010    3.246280   51.835240 C.3      1 MOL1002    0.0768
     13 H4951        20.766710    3.912310   51.315500 H        1 MOL1002    0.0702
     14 C13          20.414360    0.096000   53.360000 C.ar     1 MOL1002    0.1075
     15 O3           19.158740    0.146490   52.840870 O.3      1 MOL1002   -0.3409
     16 C14          18.218920   -0.847750   53.246650 C.3      1 MOL1002    0.0768
     17 H4957        17.284670   -0.586490   52.748600 H        1 MOL1002    0.0702
     18 C17          20.863790   -0.854810   54.241410 C.ar     1 MOL1002   -0.0025
     19 C18          22.202310   -0.807010   54.705170 C.ar     1 MOL1002    0.0786
     20 N2           22.622550   -1.758040   55.598800 N.ar     1 MOL1002   -0.2361
     21 C19          23.876630   -1.670070   55.987060 C.ar     1 MOL1002    0.1181
     22 N3           24.807760   -0.798300   55.568120 N.ar     1 MOL1002   -0.2186
     23 C20          27.653110    1.750160   54.103280 C.ar     1 MOL1002   -0.0385
     24 C21          29.010690    1.481100   53.948500 C.ar     1 MOL1002   -0.0590
     25 C22          29.475110    0.175830   53.792380 C.ar     1 MOL1002   -0.0464
     26 H1           29.107670   -4.453480   52.964910 H        1 MOL1002    0.1242
     27 H2           26.481320   -1.430370   53.857620 H        1 MOL1002    0.0658
     28 H3           25.078110    1.866270   53.728530 H        1 MOL1002    0.1681
     29 H4           23.237590    2.004250   53.036540 H        1 MOL1002    0.0660
     30 H5           21.797480    3.707710   52.768130 H        1 MOL1002    0.0597
     31 H6           22.330840    3.021920   51.217210 H        1 MOL1002    0.0597
     32 H12          18.548780   -1.838670   52.919000 H        1 MOL1002    0.0597
     33 H13          18.085910   -0.842390   54.331520 H        1 MOL1002    0.0597
     34 H19          20.209860   -1.629690   54.623920 H        1 MOL1002    0.0675
     35 H20          24.206350   -2.386550   56.732850 H        1 MOL1002    0.1063
     36 H21          27.301030    2.774270   54.221250 H        1 MOL1002    0.0645
     37 H22          29.716720    2.304340   53.942100 H        1 MOL1002    0.0624
     38 H23          30.537340   -0.013060   53.668520 H        1 MOL1002    0.0636
@<TRIPOS>BOND
     1    1   26 1
     2    1    2 3
     3    2    3 1
     4    3    4 ar
     5    3   25 ar
     6    4    5 ar
     7    4   27 1
     8    5    6 1
     9    5   23 ar
    10    6    7 1
    11    6   28 1
    12    7    8 ar
    13    7   22 ar
    14    8   19 ar
    15    8    9 ar
    16    9   10 ar
    17    9   29 1
    18   10   11 1
    19   10   14 ar
    20   11   12 1
    21   12   31 1
    22   12   13 1
    23   12   30 1
    24   14   18 ar
    25   14   15 1
    26   15   16 1
    27   16   32 1
    28   16   33 1
    29   16   17 1
    30   18   19 ar
    31   18   34 1
    32   19   20 ar
    33   20   21 ar
    34   21   22 ar
    35   21   35 1
    36   23   24 ar
    37   23   36 1
    38   24   25 ar
    39   24   37 1
    40   25   38 1
@<TRIPOS>SUBSTRUCTURE
1 MOL1002 1 RESIDUE 1 S MOL
@<TRIPOS>CRYSIN
97.837000 97.837000 97.837000 90.000000 90.000000 90.000000 1 1
@<SCITEGIC>MOL_PROPERTY
__PDBRemarks__
SciTegic.value.StringValue
TITLE     Protein in water
REMARK    THIS IS A SIMULATION BOX
CRYST1   97.837   97.837   97.837  90.00  90.00  90.00 P 1           1

@<SCITEGIC>MOL_PROPERTY
RMSD_CA_1M17_insert_addH_modelledHis_Cap
SciTegic.value.DoubleValue
0.441478

@<SCITEGIC>MOL_PROPERTY
Clean Energy
SciTegic.value.DoubleValue
-6.661349

@<SCITEGIC>MOL_PROPERTY
Protein Sequence
SciTegic.value.StringValue
LVAIKEMLITQLMPCLTDFG

@<SCITEGIC>MOL_PROPERTY
Secondary Structure
SciTegic.value.StringValue
CCCCCCCCCCCCCCTTTTCC

@<SCITEGIC>ATOM_PROPERTY
Formal Charge
SciTegic.value.StringValue
1 0
2 0
3 0
4 0
5 0
6 0
7 0
8 0
9 0
10 0
11 0
12 0
13 0
14 0
15 0
16 0
17 0
18 0
19 0
20 0
21 0
22 0
23 0
24 0
25 0
26 0
27 0
28 0
29 0
30 0
31 0
32 0
33 0
34 0
35 0
36 0
37 0
38 0

@<SCITEGIC>ATOM_PROPERTY
pdb_tempFactor
SciTegic.value.DoubleValue
1 0.00
2 0.00
3 0.00
4 0.00
5 0.00
6 0.00
7 0.00
8 0.00
9 0.00
10 0.00
11 0.00
12 0.00
13 0.00
14 0.00
15 0.00
16 0.00
17 0.00
18 0.00
19 0.00
20 0.00
21 0.00
22 0.00
23 0.00
24 0.00
25 0.00
26 0.00
27 0.00
28 0.00
29 0.00
30 0.00
31 0.00
32 0.00
33 0.00
34 0.00
35 0.00
36 0.00
37 0.00
38 0.00

@<SCITEGIC>ATOM_PROPERTY
pdb_occupancy
SciTegic.value.DoubleValue
1 1.00
2 1.00
3 1.00
4 1.00
5 1.00
6 1.00
7 1.00
8 1.00
9 1.00
10 1.00
11 1.00
12 1.00
13 1.00
14 1.00
15 1.00
16 1.00
17 1.00
18 1.00
19 1.00
20 1.00
21 1.00
22 1.00
23 1.00
24 1.00
25 1.00
26 1.00
27 1.00
28 1.00
29 1.00
30 1.00
31 1.00
32 1.00
33 1.00
34 1.00
35 1.00
36 1.00
37 1.00
38 1.00

