#	Created by:	Discovery Studio
#	Creation time:	2018-10-05T09:10:45Z

@<TRIPOS>MOLECULE
CHEMBL543195
   39    41     1 0 0
PROTEIN
USER_CHARGES


@<TRIPOS>ATOM
      1 C2           18.073109    0.345999   53.186503 C.3      1 UNK        0.2800
      2 O3           19.038667   -0.327586   53.791093 O.3      1 UNK       -0.3625
      3 C4           20.286376   -0.005661   53.704768 C.2      1 UNK        0.0825
      4 C5           20.865984   -0.841477   54.532646 C.2      1 UNK       -0.1500
      5 C6           22.154769   -0.833941   54.798301 C.ar     1 UNK        0.3100
      6 N7           22.532409   -1.679343   55.638491 N.ar     1 UNK       -0.6200
      7 C8           23.790196   -1.728161   56.028877 C.ar     1 UNK        0.4700
      8 N9           24.630893   -0.855989   55.592919 N.ar     1 UNK       -0.6200
      9 C10          24.273853    0.171165   54.658881 C.ar     1 UNK        0.4100
     10 N11          25.438665    1.143368   54.304639 N.pl3    1 UNK       -0.5691
     11 C12          24.954826    2.534801   54.076294 C.3      1 UNK        0.3691
     12 C13          26.981655    0.828127   54.113428 C.ar     1 UNK        0.1000
     13 C14          27.374726   -0.454693   54.000198 C.ar     1 UNK       -0.1500
     14 C15          28.811361   -0.817625   53.786814 C.ar     1 UNK       -0.1500
     15 C16          29.753662    0.124273   53.706967 C.ar     1 UNK        0.1770
     16 Cl17         31.388772   -0.309196   53.437628 Cl       1 UNK       -0.1770
     17 C18          29.395826    1.512652   53.862003 C.ar     1 UNK       -0.1500
     18 C19          28.119811    1.872723   54.063288 C.ar     1 UNK       -0.1500
     19 C20          23.004147    0.152330   54.207125 C.ar     1 UNK        0.0000
     20 C21          22.414624    1.070777   53.171924 C.2      1 UNK       -0.1500
     21 C22          21.100840    1.091828   52.875895 C.2      1 UNK        0.0825
     22 O23          20.693287    2.215434   51.782512 O.3      1 UNK       -0.3625
     23 C24          21.543140    3.155572   51.035120 C.3      1 UNK        0.2800
     24 H1           18.310195    0.435450   52.117335 H        1 UNK        0.0000
     25 H2           17.998831    1.347358   53.622861 H        1 UNK        0.0000
     26 H3           17.124551   -0.193288   53.301753 H        1 UNK        0.0000
     27 H4           20.258236   -1.559355   55.047275 H        1 UNK        0.1500
     28 H5           24.109127   -2.473092   56.723161 H        1 UNK        0.1500
     29 H6           23.946588    2.688859   54.473398 H        1 UNK        0.0000
     30 H7           24.974983    2.744583   52.998568 H        1 UNK        0.0000
     31 H8           25.656057    3.232074   54.558174 H        1 UNK        0.0000
     32 H9           26.655123   -1.233974   54.038512 H        1 UNK        0.1500
     33 H10          29.090555   -1.851151   53.683661 H        1 UNK        0.1500
     34 H11          30.174856    2.258601   53.816944 H        1 UNK        0.1500
     35 H12          27.907166    2.919391   54.171344 H        1 UNK        0.1500
     36 H13          23.049713    1.729857   52.679729 H        1 UNK        0.1500
     37 H14          20.914213    3.749577   50.356851 H        1 UNK        0.0000
     38 H15          22.279637    2.592808   50.443628 H        1 UNK        0.0000
     39 H16          22.058842    3.825930   51.733741 H        1 UNK        0.0000
@<TRIPOS>BOND
     1    1    2 1
     2    2    3 1
     3    3    4 2
     4    4    5 1
     5    5    6 ar
     6    6    7 ar
     7    7    8 ar
     8    8    9 ar
     9    9   10 1
    10   10   11 1
    11   10   12 1
    12   12   13 ar
    13   13   14 ar
    14   14   15 ar
    15   15   16 1
    16   15   17 ar
    17   17   18 ar
    18   12   18 ar
    19    9   19 ar
    20    5   19 ar
    21   19   20 1
    22   20   21 2
    23    3   21 1
    24   21   22 1
    25   22   23 1
    26    1   24 1
    27    1   25 1
    28    1   26 1
    29    4   27 1
    30    7   28 1
    31   11   29 1
    32   11   30 1
    33   11   31 1
    34   13   32 1
    35   14   33 1
    36   17   34 1
    37   18   35 1
    38   20   36 1
    39   23   37 1
    40   23   38 1
    41   23   39 1
@<TRIPOS>SUBSTRUCTURE
1 UNK 1 RESIDUE 1 _ UNK
@<SCITEGIC>MOL_PROPERTY
TRIPOS_COMMENT
SciTegic.value.StringValue
> <Gold.Version>
5.3.0
> <Gold.Id.Protein>
1M17_traj_1ns_WTavg_model_1|1M17_traj_1ns_WTavg_5Awater_forGold_Pro|mol2
> <Gold.Protein.ActiveResidues>
LEU718  ALA743  CYS775  THR790  GLN791  LEU792  MET793  PRO794  GLY796  LEU844
THR854
> <Gold.Score>
Fitness  S(hb_ext) S(vdw_ext)  S(hb_int)    S(int)      intcor
48.21       1.39      36.79       0.00      -3.77      -2.24
> <Gold.Goldscore.Fitness>
48.2111
> <Gold.Goldscore.Internal.Vdw>
-1.8420
> <Gold.Goldscore.Internal.Torsion>
-4.1710
> <Gold.Goldscore.External.Vdw>
36.7949
> <Gold.Goldscore.Internal.HBond>
0.0000
> <Gold.Goldscore.External.HBond>
1.3898
> <Gold.Goldscore.Internal.Correction>
-2.2412
> <Gold.Goldscore.Reference.RMSD>
7.5635
> <Gold.Goldscore.Hbonds>
donor molecule, donor type, donor heavy atom, donor atom, acceptor molecule, acceptor atom, score
P1  H  1548  1549       L1     6  0.69
> <Gold.Goldscore.Internal.Vdw.Weighted>
-1.8420
> <Gold.Goldscore.Internal.Torsion.Weighted>
-4.1710
> <Gold.Goldscore.External.Vdw.Weighted>
50.5930
> <Gold.Goldscore.Internal.HBond.Weighted>
0.0000
> <Gold.Goldscore.External.HBond.Weighted>
1.3898
> <Gold.Goldscore.Internal.Correction.Weighted>
-2.2412
> <Gold.Reference.RMSD>
7.5635

@<SCITEGIC>MOL_PROPERTY
REMARK99
SciTegic.value.StringValue
REMARK  99  MacroMolecule created from Mol2 file
REMARK  99  CHEMBL543195|CHEMBL543195|mol2|1|dock4
REMARK  99  PROTEIN
REMARK  99  USER_CHARGES
REMARK  99  
REMARK  99  

@<SCITEGIC>ATOM_PROPERTY
Formal Charge
SciTegic.value.StringValue
1 0
2 0
3 0
4 0
5 0
6 0
7 0
8 0
9 0
10 0
11 0
12 0
13 0
14 0
15 0
16 0
17 0
18 0
19 0
20 0
21 0
22 0
23 0
24 0
25 0
26 0
27 0
28 0
29 0
30 0
31 0
32 0
33 0
34 0
35 0
36 0
37 0
38 0
39 0

@<SCITEGIC>ATOM_PROPERTY
pdb_tempFactor
SciTegic.value.DoubleValue
1 0.00
2 0.00
3 0.00
4 0.00
5 0.00
6 0.00
7 0.00
8 0.00
9 0.00
10 0.00
11 0.00
12 0.00
13 0.00
14 0.00
15 0.00
16 0.00
17 0.00
18 0.00
19 0.00
20 0.00
21 0.00
22 0.00
23 0.00
24 0.00
25 0.00
26 0.00
27 0.00
28 0.00
29 0.00
30 0.00
31 0.00
32 0.00
33 0.00
34 0.00
35 0.00
36 0.00
37 0.00
38 0.00
39 0.00

@<SCITEGIC>ATOM_PROPERTY
pdb_occupancy
SciTegic.value.DoubleValue
1 1.00
2 1.00
3 1.00
4 1.00
5 1.00
6 1.00
7 1.00
8 1.00
9 1.00
10 1.00
11 1.00
12 1.00
13 1.00
14 1.00
15 1.00
16 1.00
17 1.00
18 1.00
19 1.00
20 1.00
21 1.00
22 1.00
23 1.00
24 1.00
25 1.00
26 1.00
27 1.00
28 1.00
29 1.00
30 1.00
31 1.00
32 1.00
33 1.00
34 1.00
35 1.00
36 1.00
37 1.00
38 1.00
39 1.00

