#	Created by:	Discovery Studio
#	Creation time:	2018-10-05T08:59:37Z

@<TRIPOS>MOLECULE
CHEMBL93302
   29    31     1 0 0
PROTEIN
USER_CHARGES


@<TRIPOS>ATOM
      1 O1           19.165643    0.051897   53.579813 O.3      1 UNK       -0.5325
      2 C2           20.403856    0.149883   53.694803 C.ar     1 UNK        0.0825
      3 C3           21.169289    1.029120   53.036326 C.ar     1 UNK       -0.1500
      4 C4           22.578462    1.018306   53.278136 C.ar     1 UNK       -0.1500
      5 C5           23.050915    0.138999   54.140483 C.ar     1 UNK        0.0000
      6 C6           24.397471    0.060269   54.437033 C.2      1 UNK        0.4100
      7 N7           25.372459    0.969606   53.792477 N.pl3    1 UNK       -0.6000
      8 C8           26.789294    0.725973   53.924127 C.ar     1 UNK        0.1000
      9 C9           27.616637    1.688405   54.349660 C.ar     1 UNK       -0.1500
     10 C10          29.056955    1.411898   54.477198 C.ar     1 UNK       -0.1500
     11 C11          29.537018    0.207589   54.170391 C.ar     1 UNK       -0.1500
     12 C12          28.649384   -0.833564   53.710915 C.ar     1 UNK        0.1110
     13 Br13         29.271842   -2.566101   53.259331 Br       1 UNK       -0.1110
     14 C14          27.361619   -0.591925   53.595040 C.ar     1 UNK       -0.1500
     15 N15          24.741095   -0.828837   55.289361 N.2      1 UNK       -0.6200
     16 C16          23.768897   -1.720113   55.920932 C.2      1 UNK        0.4700
     17 N17          22.558213   -1.636319   55.642969 N.2      1 UNK       -0.6200
     18 C18          22.163632   -0.766956   54.801854 C.ar     1 UNK        0.3100
     19 C19          20.907417   -0.741717   54.572413 C.ar     1 UNK       -0.1500
     20 H1           18.864982    0.226604   52.688211 H        1 UNK        0.4500
     21 H2           20.767670    1.719743   52.354989 H        1 UNK        0.1500
     22 H3           23.215005    1.688883   52.786472 H        1 UNK        0.1500
     23 H4           25.052080    1.787019   53.247333 H        1 UNK        0.4000
     24 H5           27.249211    2.650414   54.597869 H        1 UNK        0.1500
     25 H6           29.719261    2.175316   54.815908 H        1 UNK        0.1500
     26 H7           30.545974    0.014392   54.260316 H        1 UNK        0.1500
     27 H8           26.730276   -1.375709   53.254709 H        1 UNK        0.1500
     28 H9           24.098893   -2.472614   56.647002 H        1 UNK        0.1500
     29 H10          20.277264   -1.415530   55.069908 H        1 UNK        0.1500
@<TRIPOS>BOND
     1    1    2 1
     2    2    3 ar
     3    3    4 ar
     4    4    5 ar
     5    5    6 1
     6    6    7 1
     7    7    8 1
     8    8    9 ar
     9    9   10 ar
    10   10   11 ar
    11   11   12 ar
    12   12   13 1
    13   12   14 ar
    14    8   14 ar
    15    6   15 2
    16   15   16 1
    17   16   17 2
    18   17   18 1
    19    5   18 ar
    20   18   19 ar
    21    2   19 ar
    22    1   20 1
    23    3   21 1
    24    4   22 1
    25    7   23 1
    26    9   24 1
    27   10   25 1
    28   11   26 1
    29   14   27 1
    30   16   28 1
    31   19   29 1
@<TRIPOS>SUBSTRUCTURE
1 UNK 1 RESIDUE 1 _ UNK
@<SCITEGIC>MOL_PROPERTY
TRIPOS_COMMENT
SciTegic.value.StringValue
> <Gold.Version>
5.3.0
> <Gold.Id.Protein>
1M17_traj_1ns_WTavg_model_1|1M17_traj_1ns_WTavg_5Awater_forGold_Pro|mol2
> <Gold.Protein.ActiveResidues>
LEU718  ALA743  CYS775  THR790  GLN791  LEU792  MET793  PRO794  GLY796  LEU844
THR854
> <Gold.Score>
Fitness  S(hb_ext) S(vdw_ext)  S(hb_int)    S(int)      intcor
53.41       1.79      38.39       0.00      -1.16     -14.58
> <Gold.Goldscore.Fitness>
53.4069
> <Gold.Goldscore.Internal.Vdw>
-9.1031
> <Gold.Goldscore.Internal.Torsion>
-6.6410
> <Gold.Goldscore.External.Vdw>
38.3900
> <Gold.Goldscore.Internal.HBond>
0.0000
> <Gold.Goldscore.External.HBond>
1.7851
> <Gold.Goldscore.Internal.Correction>
-14.5797
> <Gold.Goldscore.Reference.RMSD>
6.9863
> <Gold.Goldscore.Hbonds>
donor molecule, donor type, donor heavy atom, donor atom, acceptor molecule, acceptor atom, score
P1  H  1548  1549       L1    17  0.89
> <Gold.Goldscore.Internal.Vdw.Weighted>
-9.1031
> <Gold.Goldscore.Internal.Torsion.Weighted>
-6.6410
> <Gold.Goldscore.External.Vdw.Weighted>
52.7862
> <Gold.Goldscore.Internal.HBond.Weighted>
0.0000
> <Gold.Goldscore.External.HBond.Weighted>
1.7851
> <Gold.Goldscore.Internal.Correction.Weighted>
-14.5797
> <Gold.Reference.RMSD>
6.9863

@<SCITEGIC>MOL_PROPERTY
REMARK99
SciTegic.value.StringValue
REMARK  99  MacroMolecule created from Mol2 file
REMARK  99  CHEMBL93302|CHEMBL93302|mol2|1|dock5
REMARK  99  PROTEIN
REMARK  99  USER_CHARGES
REMARK  99  
REMARK  99  

@<SCITEGIC>MOL_PROPERTY
Estimated Confs
SciTegic.value.IntegerValue
12

@<SCITEGIC>MOL_PROPERTY
ROTBONDS
SciTegic.value.StringValue
R1-2_6-7_7-8

@<SCITEGIC>ATOM_PROPERTY
Formal Charge
SciTegic.value.StringValue
1 0
2 0
3 0
4 0
5 0
6 0
7 0
8 0
9 0
10 0
11 0
12 0
13 0
14 0
15 0
16 0
17 0
18 0
19 0
20 0
21 0
22 0
23 0
24 0
25 0
26 0
27 0
28 0
29 0

@<SCITEGIC>ATOM_PROPERTY
pdb_tempFactor
SciTegic.value.DoubleValue
1 0.00
2 0.00
3 0.00
4 0.00
5 0.00
6 0.00
7 0.00
8 0.00
9 0.00
10 0.00
11 0.00
12 0.00
13 0.00
14 0.00
15 0.00
16 0.00
17 0.00
18 0.00
19 0.00
20 0.00
21 0.00
22 0.00
23 0.00
24 0.00
25 0.00
26 0.00
27 0.00
28 0.00
29 0.00

@<SCITEGIC>ATOM_PROPERTY
pdb_occupancy
SciTegic.value.DoubleValue
1 1.00
2 1.00
3 1.00
4 1.00
5 1.00
6 1.00
7 1.00
8 1.00
9 1.00
10 1.00
11 1.00
12 1.00
13 1.00
14 1.00
15 1.00
16 1.00
17 1.00
18 1.00
19 1.00
20 1.00
21 1.00
22 1.00
23 1.00
24 1.00
25 1.00
26 1.00
27 1.00
28 1.00
29 1.00

