#	Created by:	Discovery Studio
#	Creation time:	2018-10-03T21:47:20Z

@<TRIPOS>MOLECULE
CHEMBL1277620|CHEMBL1277620|mol2|1|dock2
   36    38     1 0 0
PROTEIN
USER_CHARGES


@<TRIPOS>ATOM
      1 C1           18.158532    0.950667   53.284811 C.3      1 UNK        0.2800
      2 O2           19.020086    0.055717   53.769251 O.3      1 UNK       -0.3625
      3 C3           20.290099    0.221943   53.700046 C.2      1 UNK        0.0825
      4 C4           20.795521   -0.695498   54.503913 C.2      1 UNK       -0.1500
      5 C5           22.110132   -0.814480   54.727903 C.ar     1 UNK        0.3100
      6 N6           22.481849   -1.698925   55.536110 N.ar     1 UNK       -0.6200
      7 C7           23.777185   -1.831658   55.837188 C.ar     1 UNK        0.4700
      8 N8           24.643406   -1.007345   55.344938 N.ar     1 UNK       -0.6200
      9 C9           24.283151    0.055847   54.444295 C.ar     1 UNK        0.4100
     10 N10          25.418760    1.009108   53.960974 N.pl3    1 UNK       -0.6000
     11 C11          26.957683    0.901826   54.034210 C.ar     1 UNK        0.1000
     12 C12          27.908367    1.867283   54.184675 C.ar     1 UNK       -0.1500
     13 C13          29.364767    1.512762   54.203026 C.ar     1 UNK       -0.1500
     14 C14          29.729413    0.242834   54.099612 C.ar     1 UNK        0.1110
     15 Br15         31.577674   -0.222984   54.115658 Br       1 UNK       -0.1110
     16 C16          28.698423   -0.793364   53.980972 C.ar     1 UNK       -0.1500
     17 C17          27.403637   -0.456884   53.949959 C.ar     1 UNK        0.1900
     18 F18          26.462238   -1.390555   53.843358 F        1 UNK       -0.1900
     19 C19          23.001404    0.106903   54.102629 C.ar     1 UNK        0.0000
     20 C20          22.502914    1.052204   53.151363 C.2      1 UNK       -0.1500
     21 C21          21.219334    1.233022   52.889864 C.2      1 UNK        0.0825
     22 O22          21.021283    2.423839   51.859513 O.3      1 UNK       -0.3625
     23 C23          22.024172    3.253624   51.198822 C.3      1 UNK        0.2800
     24 H1           18.376808    1.126630   52.222634 H        1 UNK        0.0000
     25 H2           18.261683    1.893311   53.835063 H        1 UNK        0.0000
     26 H3           17.136781    0.562568   53.382905 H        1 UNK        0.0000
     27 H4           20.132927   -1.361704   55.018452 H        1 UNK        0.1500
     28 H5           24.098602   -2.606665   56.503571 H        1 UNK        0.1500
     29 H6           25.091101    1.871348   53.452037 H        1 UNK        0.4000
     30 H7           27.642105    2.895592   54.269540 H        1 UNK        0.1500
     31 H8           30.133800    2.281846   54.292957 H        1 UNK        0.1500
     32 H9           28.983408   -1.823930   53.919667 H        1 UNK        0.1500
     33 H10          23.183654    1.634946   52.662638 H        1 UNK        0.1500
     34 H11          21.513453    4.015553   50.593126 H        1 UNK        0.0000
     35 H12          22.643227    2.624595   50.544858 H        1 UNK        0.0000
     36 H13          22.650486    3.743943   51.951815 H        1 UNK        0.0000
@<TRIPOS>BOND
     1    1    2 1
     2    2    3 1
     3    3    4 2
     4    4    5 1
     5    5    6 ar
     6    6    7 ar
     7    7    8 ar
     8    8    9 ar
     9    9   10 1
    10   10   11 1
    11   11   12 ar
    12   12   13 ar
    13   13   14 ar
    14   14   15 1
    15   14   16 ar
    16   16   17 ar
    17   11   17 ar
    18   17   18 1
    19    9   19 ar
    20    5   19 ar
    21   19   20 1
    22   20   21 2
    23    3   21 1
    24   21   22 1
    25   22   23 1
    26    1   24 1
    27    1   25 1
    28    1   26 1
    29    4   27 1
    30    7   28 1
    31   10   29 1
    32   12   30 1
    33   13   31 1
    34   16   32 1
    35   20   33 1
    36   23   34 1
    37   23   35 1
    38   23   36 1
@<TRIPOS>SUBSTRUCTURE
1 UNK 1 RESIDUE 1 _ UNK
@<SCITEGIC>MOL_PROPERTY
TRIPOS_COMMENT
SciTegic.value.StringValue
> <Gold.Version>
5.3.0
> <Gold.Id.Protein>
1M17_traj_1ns_WTavg_model_1|1M17_traj_1ns_WTavg_5Awater_forGold_Pro|mol2
> <Gold.Protein.ActiveResidues>
LEU718  ALA743  CYS775  THR790  GLN791  LEU792  MET793  PRO794  GLY796  LEU844
THR854
> <Gold.Score>
Fitness  S(hb_ext) S(vdw_ext)  S(hb_int)    S(int)      intcor
48.06       1.69      36.55       0.00      -3.88      -2.61
> <Gold.Goldscore.Fitness>
48.0616
> <Gold.Goldscore.Internal.Vdw>
-3.5177
> <Gold.Goldscore.Internal.Torsion>
-2.9655
> <Gold.Goldscore.External.Vdw>
36.5477
> <Gold.Goldscore.Internal.HBond>
0.0000
> <Gold.Goldscore.External.HBond>
1.6864
> <Gold.Goldscore.Internal.Correction>
-2.6053
> <Gold.Goldscore.Reference.RMSD>
7.5276
> <Gold.Goldscore.Hbonds>
donor molecule, donor type, donor heavy atom, donor atom, acceptor molecule, acceptor atom, score
P1  H  1548  1549       L1     6  0.84
> <Gold.Goldscore.Internal.Vdw.Weighted>
-3.5177
> <Gold.Goldscore.Internal.Torsion.Weighted>
-2.9655
> <Gold.Goldscore.External.Vdw.Weighted>
50.2531
> <Gold.Goldscore.Internal.HBond.Weighted>
0.0000
> <Gold.Goldscore.External.HBond.Weighted>
1.6864
> <Gold.Goldscore.Internal.Correction.Weighted>
-2.6053
> <Gold.Reference.RMSD>
7.5276

@<SCITEGIC>MOL_PROPERTY
REMARK99
SciTegic.value.StringValue
REMARK  99  MacroMolecule created from Mol2 file
REMARK  99  CHEMBL1277620|CHEMBL1277620|mol2|1|dock2
REMARK  99  PROTEIN
REMARK  99  USER_CHARGES
REMARK  99  
REMARK  99  

@<SCITEGIC>ATOM_PROPERTY
Formal Charge
SciTegic.value.StringValue
1 0
2 0
3 0
4 0
5 0
6 0
7 0
8 0
9 0
10 0
11 0
12 0
13 0
14 0
15 0
16 0
17 0
18 0
19 0
20 0
21 0
22 0
23 0
24 0
25 0
26 0
27 0
28 0
29 0
30 0
31 0
32 0
33 0
34 0
35 0
36 0

@<SCITEGIC>ATOM_PROPERTY
pdb_tempFactor
SciTegic.value.DoubleValue
1 0.00
2 0.00
3 0.00
4 0.00
5 0.00
6 0.00
7 0.00
8 0.00
9 0.00
10 0.00
11 0.00
12 0.00
13 0.00
14 0.00
15 0.00
16 0.00
17 0.00
18 0.00
19 0.00
20 0.00
21 0.00
22 0.00
23 0.00
24 0.00
25 0.00
26 0.00
27 0.00
28 0.00
29 0.00
30 0.00
31 0.00
32 0.00
33 0.00
34 0.00
35 0.00
36 0.00

@<SCITEGIC>ATOM_PROPERTY
pdb_occupancy
SciTegic.value.DoubleValue
1 1.00
2 1.00
3 1.00
4 1.00
5 1.00
6 1.00
7 1.00
8 1.00
9 1.00
10 1.00
11 1.00
12 1.00
13 1.00
14 1.00
15 1.00
16 1.00
17 1.00
18 1.00
19 1.00
20 1.00
21 1.00
22 1.00
23 1.00
24 1.00
25 1.00
26 1.00
27 1.00
28 1.00
29 1.00
30 1.00
31 1.00
32 1.00
33 1.00
34 1.00
35 1.00
36 1.00

