#	Created by:	Discovery Studio
#	Creation time:	2018-10-05T09:11:50Z

@<TRIPOS>MOLECULE
CHEMBL555321
   28    30     1 0 0
PROTEIN
USER_CHARGES


@<TRIPOS>ATOM
      1 Cl1          29.385787   -2.288870   53.121024 Cl       1 UNK       -0.1770
      2 C2           28.762041   -0.749422   53.581894 C.ar     1 UNK        0.1770
      3 C3           29.599973    0.180255   54.014166 C.ar     1 UNK       -0.1500
      4 C4           29.129917    1.476914   54.409408 C.ar     1 UNK       -0.1500
      5 C5           27.809768    1.751819   54.338528 C.ar     1 UNK       -0.1500
      6 C6           26.837275    0.679320   53.839219 C.ar     1 UNK        0.1000
      7 N7           25.387800    0.841994   53.712623 N.pl3    1 UNK       -0.6000
      8 C8           24.421264   -0.022750   54.387944 C.2      1 UNK        0.4100
      9 N9           24.793119   -0.897649   55.240545 N.2      1 UNK       -0.6200
     10 C10          23.807468   -1.790230   55.939009 C.2      1 UNK        0.4700
     11 N11          22.552923   -1.694582   55.693713 N.2      1 UNK       -0.6200
     12 C12          22.045509   -0.786478   54.793564 C.ar     1 UNK        0.3100
     13 C13          20.728146   -0.715039   54.562438 C.ar     1 UNK       -0.1500
     14 C14          20.205141    0.262605   53.596389 C.ar     1 UNK       -0.1500
     15 C15          21.069748    1.060169   52.970063 C.ar     1 UNK       -0.1500
     16 C16          22.504337    0.976051   53.227573 C.ar     1 UNK       -0.1500
     17 C17          22.973214    0.092587   54.100111 C.ar     1 UNK        0.0000
     18 C18          27.343485   -0.502706   53.488734 C.ar     1 UNK       -0.1500
     19 H1           30.617787   -0.032551   54.068409 H        1 UNK        0.1500
     20 H2           29.878237    2.209974   54.761222 H        1 UNK        0.1500
     21 H3           27.451719    2.711559   54.629721 H        1 UNK        0.1500
     22 H4           25.036630    1.620430   53.105045 H        1 UNK        0.4000
     23 H5           24.143867   -2.530779   56.663481 H        1 UNK        0.1500
     24 H6           20.062892   -1.360610   55.073722 H        1 UNK        0.1500
     25 H7           19.114692    0.339719   53.388585 H        1 UNK        0.1500
     26 H8           20.732162    1.744985   52.296938 H        1 UNK        0.1500
     27 H9           23.158914    1.618184   52.718069 H        1 UNK        0.1500
     28 H10          26.709696   -1.279910   53.135908 H        1 UNK        0.1500
@<TRIPOS>BOND
     1    1    2 1
     2    2    3 ar
     3    3    4 ar
     4    4    5 ar
     5    5    6 ar
     6    6    7 1
     7    7    8 1
     8    8    9 2
     9    9   10 1
    10   10   11 2
    11   11   12 1
    12   12   13 ar
    13   13   14 ar
    14   14   15 ar
    15   15   16 ar
    16   16   17 ar
    17    8   17 1
    18   12   17 ar
    19    6   18 ar
    20    2   18 ar
    21    3   19 1
    22    4   20 1
    23    5   21 1
    24    7   22 1
    25   10   23 1
    26   13   24 1
    27   14   25 1
    28   15   26 1
    29   16   27 1
    30   18   28 1
@<TRIPOS>SUBSTRUCTURE
1 UNK 1 RESIDUE 1 _ UNK
@<SCITEGIC>MOL_PROPERTY
TRIPOS_COMMENT
SciTegic.value.StringValue
> <Gold.Version>
5.3.0
> <Gold.Id.Protein>
1M17_traj_1ns_WTavg_model_1|1M17_traj_1ns_WTavg_5Awater_forGold_Pro|mol2
> <Gold.Protein.ActiveResidues>
LEU718  ALA743  CYS775  THR790  GLN791  LEU792  MET793  PRO794  GLY796  LEU844
THR854
> <Gold.Score>
Fitness  S(hb_ext) S(vdw_ext)  S(hb_int)    S(int)      intcor
50.14       1.88      36.76       0.00      -2.29      -9.95
> <Gold.Goldscore.Fitness>
50.1408
> <Gold.Goldscore.Internal.Vdw>
-6.9544
> <Gold.Goldscore.Internal.Torsion>
-5.2819
> <Gold.Goldscore.External.Vdw>
36.7602
> <Gold.Goldscore.Internal.HBond>
0.0000
> <Gold.Goldscore.External.HBond>
1.8830
> <Gold.Goldscore.Internal.Correction>
-9.9489
> <Gold.Goldscore.Reference.RMSD>
6.3844
> <Gold.Goldscore.Hbonds>
donor molecule, donor type, donor heavy atom, donor atom, acceptor molecule, acceptor atom, score
P1  H  1548  1549       L1    11  0.94
> <Gold.Goldscore.Internal.Vdw.Weighted>
-6.9544
> <Gold.Goldscore.Internal.Torsion.Weighted>
-5.2819
> <Gold.Goldscore.External.Vdw.Weighted>
50.5452
> <Gold.Goldscore.Internal.HBond.Weighted>
0.0000
> <Gold.Goldscore.External.HBond.Weighted>
1.8830
> <Gold.Goldscore.Internal.Correction.Weighted>
-9.9489
> <Gold.Reference.RMSD>
6.3844

@<SCITEGIC>MOL_PROPERTY
REMARK99
SciTegic.value.StringValue
REMARK  99  MacroMolecule created from Mol2 file
REMARK  99  CHEMBL555321|CHEMBL555321|mol2|1|dock2
REMARK  99  PROTEIN
REMARK  99  USER_CHARGES
REMARK  99  
REMARK  99  

@<SCITEGIC>ATOM_PROPERTY
Formal Charge
SciTegic.value.StringValue
1 0
2 0
3 0
4 0
5 0
6 0
7 0
8 0
9 0
10 0
11 0
12 0
13 0
14 0
15 0
16 0
17 0
18 0
19 0
20 0
21 0
22 0
23 0
24 0
25 0
26 0
27 0
28 0

@<SCITEGIC>ATOM_PROPERTY
pdb_tempFactor
SciTegic.value.DoubleValue
1 0.00
2 0.00
3 0.00
4 0.00
5 0.00
6 0.00
7 0.00
8 0.00
9 0.00
10 0.00
11 0.00
12 0.00
13 0.00
14 0.00
15 0.00
16 0.00
17 0.00
18 0.00
19 0.00
20 0.00
21 0.00
22 0.00
23 0.00
24 0.00
25 0.00
26 0.00
27 0.00
28 0.00

@<SCITEGIC>ATOM_PROPERTY
pdb_occupancy
SciTegic.value.DoubleValue
1 1.00
2 1.00
3 1.00
4 1.00
5 1.00
6 1.00
7 1.00
8 1.00
9 1.00
10 1.00
11 1.00
12 1.00
13 1.00
14 1.00
15 1.00
16 1.00
17 1.00
18 1.00
19 1.00
20 1.00
21 1.00
22 1.00
23 1.00
24 1.00
25 1.00
26 1.00
27 1.00
28 1.00

