#	Created by:	Discovery Studio
#	Creation time:	2018-10-05T09:07:56Z

@<TRIPOS>MOLECULE
CHEMBL155100
   30    33     1 0 0
PROTEIN
USER_CHARGES


@<TRIPOS>ATOM
      1 Br1          28.881679   -2.550868   52.673800 Br       1 UNK        0.0000
      2 C2           28.373463   -0.820810   53.272952 C.ar     1 UNK        0.0000
      3 C3           29.324173    0.185469   53.375706 C.ar     1 UNK       -0.1300
      4 C4           28.951654    1.449475   53.813704 C.ar     1 UNK       -0.1300
      5 C5           27.626264    1.705502   54.148922 C.ar     1 UNK       -0.1300
      6 C6           26.664880    0.700867   54.048781 C.ar     1 UNK        0.0500
      7 N7           25.306139    1.004161   54.404261 N.pl3    1 UNK       -0.3500
      8 C8           24.329214   -0.023203   54.788777 C.ar     1 UNK        0.4300
      9 N9           24.626492   -1.012225   55.622307 N.ar     1 UNK       -0.7600
     10 C10          23.739924   -1.952178   55.976743 C.ar     1 UNK        0.6300
     11 N11          22.503527   -1.926045   55.494797 N.ar     1 UNK       -0.3800
     12 C12          22.144437   -0.966893   54.660026 C.ar     1 UNK        0.0000
     13 C13          23.050857    0.018853   54.279527 C.ar     1 UNK        0.0000
     14 C14          22.699352    1.038790   53.403193 C.ar     1 UNK       -0.1300
     15 C15          21.414754    1.085381   52.888338 C.ar     1 UNK       -0.1300
     16 C16          20.527567    0.098824   53.276585 C.ar     1 UNK        0.2000
     17 N17          19.276516   -0.073339   52.934053 N.ar     1 UNK       -0.3000
     18 C18          18.837012   -1.164554   53.566361 C.ar     1 UNK        0.1000
     19 N19          19.815661   -1.691478   54.317446 N.ar     1 UNK       -0.3000
     20 C20          20.868859   -0.903502   54.136229 C.ar     1 UNK        0.2000
     21 C21          27.050251   -0.563763   53.608025 C.ar     1 UNK       -0.1300
     22 H1           30.327805   -0.010780   53.121181 H        1 UNK        0.1300
     23 H2           29.683796    2.222619   53.892347 H        1 UNK        0.1300
     24 H3           27.352365    2.675009   54.482619 H        1 UNK        0.1300
     25 H4           25.018437    1.977598   54.385413 H        1 UNK        0.2500
     26 H5           24.031444   -2.743260   56.663533 H        1 UNK        0.1300
     27 H6           23.406362    1.772490   53.132096 H        1 UNK        0.1300
     28 H7           21.140152    1.829322   52.242238 H        1 UNK        0.1300
     29 H8           17.860762   -1.558510   53.488599 H        1 UNK        0.1000
     30 H9           26.328409   -1.343413   53.525552 H        1 UNK        0.1300
@<TRIPOS>BOND
     1    1    2 1
     2    2    3 ar
     3    3    4 ar
     4    4    5 ar
     5    5    6 ar
     6    6    7 1
     7    7    8 1
     8    8    9 ar
     9    9   10 ar
    10   10   11 ar
    11   11   12 ar
    12   12   13 ar
    13    8   13 ar
    14   13   14 ar
    15   14   15 ar
    16   15   16 ar
    17   16   17 ar
    18   17   18 ar
    19   18   19 ar
    20   19   20 ar
    21   12   20 ar
    22   16   20 ar
    23    6   21 ar
    24    2   21 ar
    25    3   22 1
    26    4   23 1
    27    5   24 1
    28    7   25 1
    29   10   26 1
    30   14   27 1
    31   15   28 1
    32   18   29 1
    33   21   30 1
@<TRIPOS>SUBSTRUCTURE
1 UNK 1 RESIDUE 1 _ UNK
@<SCITEGIC>MOL_PROPERTY
TRIPOS_COMMENT
SciTegic.value.StringValue
> <Gold.Version>
5.3.0
> <Gold.Id.Protein>
1M17_traj_1ns_WTavg_model_1|1M17_traj_1ns_WTavg_5Awater_forGold_Pro|mol2
> <Gold.Protein.ActiveResidues>
LEU718  ALA743  CYS775  THR790  GLN791  LEU792  MET793  PRO794  GLY796  LEU844
THR854
> <Gold.Score>
Fitness  S(hb_ext) S(vdw_ext)  S(hb_int)    S(int)      intcor
53.39       1.32      38.98       0.00      -1.53      -5.10
> <Gold.Goldscore.Fitness>
53.3949
> <Gold.Goldscore.Internal.Vdw>
-2.6169
> <Gold.Goldscore.Internal.Torsion>
-4.0080
> <Gold.Goldscore.External.Vdw>
38.9847
> <Gold.Goldscore.Internal.HBond>
0.0000
> <Gold.Goldscore.External.HBond>
1.3199
> <Gold.Goldscore.Internal.Correction>
-5.0960
> <Gold.Goldscore.Reference.RMSD>
5.6587
> <Gold.Goldscore.Hbonds>
donor molecule, donor type, donor heavy atom, donor atom, acceptor molecule, acceptor atom, score
P1  H  1548  1549       L1    11  0.66
> <Gold.Goldscore.Internal.Vdw.Weighted>
-2.6169
> <Gold.Goldscore.Internal.Torsion.Weighted>
-4.0080
> <Gold.Goldscore.External.Vdw.Weighted>
53.6040
> <Gold.Goldscore.Internal.HBond.Weighted>
0.0000
> <Gold.Goldscore.External.HBond.Weighted>
1.3199
> <Gold.Goldscore.Internal.Correction.Weighted>
-5.0960
> <Gold.Reference.RMSD>
5.6587

@<SCITEGIC>MOL_PROPERTY
REMARK99
SciTegic.value.StringValue
REMARK  99  MacroMolecule created from Mol2 file
REMARK  99  CHEMBL155100|CHEMBL155100|mol2|1|dock3
REMARK  99  PROTEIN
REMARK  99  USER_CHARGES
REMARK  99  
REMARK  99  

@<SCITEGIC>ATOM_PROPERTY
Formal Charge
SciTegic.value.StringValue
1 0
2 0
3 0
4 0
5 0
6 0
7 0
8 0
9 0
10 0
11 0
12 0
13 0
14 0
15 0
16 0
17 0
18 0
19 0
20 0
21 0
22 0
23 0
24 0
25 0
26 0
27 0
28 0
29 0
30 0

@<SCITEGIC>ATOM_PROPERTY
pdb_tempFactor
SciTegic.value.DoubleValue
1 0.00
2 0.00
3 0.00
4 0.00
5 0.00
6 0.00
7 0.00
8 0.00
9 0.00
10 0.00
11 0.00
12 0.00
13 0.00
14 0.00
15 0.00
16 0.00
17 0.00
18 0.00
19 0.00
20 0.00
21 0.00
22 0.00
23 0.00
24 0.00
25 0.00
26 0.00
27 0.00
28 0.00
29 0.00
30 0.00

@<SCITEGIC>ATOM_PROPERTY
pdb_occupancy
SciTegic.value.DoubleValue
1 1.00
2 1.00
3 1.00
4 1.00
5 1.00
6 1.00
7 1.00
8 1.00
9 1.00
10 1.00
11 1.00
12 1.00
13 1.00
14 1.00
15 1.00
16 1.00
17 1.00
18 1.00
19 1.00
20 1.00
21 1.00
22 1.00
23 1.00
24 1.00
25 1.00
26 1.00
27 1.00
28 1.00
29 1.00
30 1.00

