#	Created by:	Discovery Studio
#	Creation time:	2018-10-05T11:40:47Z

@<TRIPOS>MOLECULE
CHEMBL330224
   30    32     1 0 0
PROTEIN
USER_CHARGES


@<TRIPOS>ATOM
      1 N1           19.329261    0.752891   53.533157 N.pl3    1 UNK       -0.9000
      2 C2           20.504057    0.584201   53.768427 C.ar     1 UNK        0.1000
      3 C3           21.414269    1.373876   53.198521 C.ar     1 UNK       -0.1500
      4 C4           22.752331    1.161330   53.483183 C.ar     1 UNK       -0.1500
      5 C5           23.066109    0.185000   54.307311 C.ar     1 UNK        0.0000
      6 C6           24.361804   -0.029127   54.589941 C.2      1 UNK        0.4100
      7 N7           25.279366    0.856602   53.941903 N.pl3    1 UNK       -0.6000
      8 C8           26.718908    0.698842   53.968264 C.ar     1 UNK        0.1000
      9 C9           27.480121    1.792987   54.107705 C.ar     1 UNK       -0.1500
     10 C10          28.933846    1.685913   54.139816 C.ar     1 UNK       -0.1500
     11 C11          29.523611    0.500665   54.031121 C.ar     1 UNK       -0.1500
     12 C12          28.743080   -0.716491   53.877953 C.ar     1 UNK       -0.1500
     13 C13          27.400123   -0.644030   53.845474 C.ar     1 UNK       -0.1500
     14 N14          24.661072   -0.979077   55.391161 N.2      1 UNK       -0.6200
     15 C15          23.538427   -1.796763   55.966496 C.2      1 UNK        0.4700
     16 N16          22.345117   -1.566945   55.679630 N.2      1 UNK       -0.6200
     17 C17          22.068781   -0.633174   54.893390 C.ar     1 UNK        0.3100
     18 C18          20.828288   -0.437632   54.630695 C.ar     1 UNK       -0.1500
     19 H1           19.047354    1.458125   52.933241 H        1 UNK        0.4000
     20 H2           18.526737    0.167739   53.944862 H        1 UNK        0.4000
     21 H3           21.144050    2.155526   52.537090 H        1 UNK        0.1500
     22 H4           23.495443    1.768642   53.048346 H        1 UNK        0.1500
     23 H5           24.838321    1.664470   53.422040 H        1 UNK        0.4000
     24 H6           27.036940    2.754034   54.196859 H        1 UNK        0.1500
     25 H7           29.531000    2.566388   54.251538 H        1 UNK        0.1500
     26 H8           30.559808    0.441579   54.055789 H        1 UNK        0.1500
     27 H9           29.275497   -1.673734   53.791879 H        1 UNK        0.1500
     28 H10          26.813967   -1.538542   53.732486 H        1 UNK        0.1500
     29 H11          23.761615   -2.623165   56.660530 H        1 UNK        0.1500
     30 H12          20.090928   -1.056820   55.075575 H        1 UNK        0.1500
@<TRIPOS>BOND
     1    1    2 1
     2    2    3 ar
     3    3    4 ar
     4    4    5 ar
     5    5    6 1
     6    6    7 1
     7    7    8 1
     8    8    9 ar
     9    9   10 ar
    10   10   11 ar
    11   11   12 ar
    12   12   13 ar
    13    8   13 ar
    14    6   14 2
    15   14   15 1
    16   15   16 2
    17   16   17 1
    18    5   17 ar
    19   17   18 ar
    20    2   18 ar
    21    1   19 1
    22    1   20 1
    23    3   21 1
    24    4   22 1
    25    7   23 1
    26    9   24 1
    27   10   25 1
    28   11   26 1
    29   12   27 1
    30   13   28 1
    31   15   29 1
    32   18   30 1
@<TRIPOS>SUBSTRUCTURE
1 UNK 1 RESIDUE 1 _ UNK
@<SCITEGIC>MOL_PROPERTY
TRIPOS_COMMENT
SciTegic.value.StringValue
> <Gold.Version>
5.3.0
> <Gold.Id.Protein>
1M17_traj_1ns_WTavg_model_1|1M17_traj_1ns_WTavg_5Awater_forGold_Pro|mol2
> <Gold.Protein.ActiveResidues>
LEU718  ALA743  CYS775  THR790  GLN791  LEU792  MET793  PRO794  GLY796  LEU844
THR854
> <Gold.Score>
Fitness  S(hb_ext) S(vdw_ext)  S(hb_int)    S(int)      intcor
43.21       1.31      31.22       0.00      -1.03     -31.96
> <Gold.Goldscore.Fitness>
43.2059
> <Gold.Goldscore.Internal.Vdw>
-29.3350
> <Gold.Goldscore.Internal.Torsion>
-3.6602
> <Gold.Goldscore.External.Vdw>
31.2184
> <Gold.Goldscore.Internal.HBond>
0.0000
> <Gold.Goldscore.External.HBond>
1.3144
> <Gold.Goldscore.Internal.Correction>
-31.9615
> <Gold.Goldscore.Reference.RMSD>
6.4114
> <Gold.Goldscore.Hbonds>
donor molecule, donor type, donor heavy atom, donor atom, acceptor molecule, acceptor atom, score
P1  H  1548  1549       L1    16  0.66
> <Gold.Goldscore.Internal.Vdw.Weighted>
-29.3350
> <Gold.Goldscore.Internal.Torsion.Weighted>
-3.6602
> <Gold.Goldscore.External.Vdw.Weighted>
42.9253
> <Gold.Goldscore.Internal.HBond.Weighted>
0.0000
> <Gold.Goldscore.External.HBond.Weighted>
1.3144
> <Gold.Goldscore.Internal.Correction.Weighted>
-31.9615
> <Gold.Reference.RMSD>
6.4114

@<SCITEGIC>MOL_PROPERTY
REMARK99
SciTegic.value.StringValue
REMARK  99  MacroMolecule created from Mol2 file
REMARK  99  CHEMBL330224|CHEMBL330224|mol2|1|dock1
REMARK  99  PROTEIN
REMARK  99  USER_CHARGES
REMARK  99  
REMARK  99  

@<SCITEGIC>ATOM_PROPERTY
Formal Charge
SciTegic.value.StringValue
1 0
2 0
3 0
4 0
5 0
6 0
7 0
8 0
9 0
10 0
11 0
12 0
13 0
14 0
15 0
16 0
17 0
18 0
19 0
20 0
21 0
22 0
23 0
24 0
25 0
26 0
27 0
28 0
29 0
30 0

@<SCITEGIC>ATOM_PROPERTY
pdb_tempFactor
SciTegic.value.DoubleValue
1 0.00
2 0.00
3 0.00
4 0.00
5 0.00
6 0.00
7 0.00
8 0.00
9 0.00
10 0.00
11 0.00
12 0.00
13 0.00
14 0.00
15 0.00
16 0.00
17 0.00
18 0.00
19 0.00
20 0.00
21 0.00
22 0.00
23 0.00
24 0.00
25 0.00
26 0.00
27 0.00
28 0.00
29 0.00
30 0.00

@<SCITEGIC>ATOM_PROPERTY
pdb_occupancy
SciTegic.value.DoubleValue
1 1.00
2 1.00
3 1.00
4 1.00
5 1.00
6 1.00
7 1.00
8 1.00
9 1.00
10 1.00
11 1.00
12 1.00
13 1.00
14 1.00
15 1.00
16 1.00
17 1.00
18 1.00
19 1.00
20 1.00
21 1.00
22 1.00
23 1.00
24 1.00
25 1.00
26 1.00
27 1.00
28 1.00
29 1.00
30 1.00

