#	Created by:	Discovery Studio
#	Creation time:	2018-10-05T11:40:20Z

@<TRIPOS>MOLECULE
CHEMBL336113
   33    35     1 0 0
PROTEIN
USER_CHARGES


@<TRIPOS>ATOM
      1 C1           29.424679   -2.201416   53.738907 C.3      1 UNK        0.1435
      2 C2           28.915831   -0.791051   53.866889 C.ar     1 UNK       -0.1435
      3 C3           29.768210    0.205408   54.080775 C.ar     1 UNK       -0.1500
      4 C4           29.304441    1.586481   54.209675 C.ar     1 UNK       -0.1500
      5 C5           27.987562    1.865160   54.111029 C.ar     1 UNK       -0.1500
      6 C6           26.999998    0.723358   53.864749 C.ar     1 UNK        0.1000
      7 N7           25.540893    0.861524   53.733742 N.pl3    1 UNK       -0.6000
      8 C8           24.451346   -0.024064   54.403948 C.2      1 UNK        0.4100
      9 N9           24.796190   -0.958574   55.238352 N.2      1 UNK       -0.6200
     10 C10          23.848652   -1.863368   55.937185 C.2      1 UNK        0.4700
     11 N11          22.589340   -1.767775   55.747567 N.2      1 UNK       -0.6200
     12 C12          22.013683   -0.774137   54.842522 C.ar     1 UNK        0.3100
     13 C13          20.683136   -0.681451   54.649379 C.ar     1 UNK       -0.1500
     14 C14          20.090059    0.359717   53.701940 C.ar     1 UNK       -0.1500
     15 C15          20.900663    1.212526   53.036207 C.ar     1 UNK        0.1000
     16 N16          20.327045    2.265117   52.080538 N.pl3    1 UNK       -0.9000
     17 C17          22.434284    1.080788   53.280335 C.ar     1 UNK       -0.1500
     18 C18          22.936207    0.148187   54.126570 C.ar     1 UNK        0.0000
     19 C19          27.487680   -0.523160   53.755556 C.ar     1 UNK       -0.1500
     20 H1           29.903915   -2.357216   52.761689 H        1 UNK        0.0000
     21 H2           28.583389   -2.894874   53.879464 H        1 UNK        0.0000
     22 H3           30.130017   -2.398463   54.558741 H        1 UNK        0.0000
     23 H4           30.784928   -0.000296   54.158173 H        1 UNK        0.1500
     24 H5           30.056015    2.375912   54.386930 H        1 UNK        0.1500
     25 H6           27.652661    2.882764   54.206629 H        1 UNK        0.1500
     26 H7           25.183831    1.636023   53.126251 H        1 UNK        0.4000
     27 H8           24.215349   -2.622261   56.622274 H        1 UNK        0.1500
     28 H9           20.022878   -1.357451   55.175547 H        1 UNK        0.1500
     29 H10          18.993830    0.405878   53.568740 H        1 UNK        0.1500
     30 H11          19.327452    2.350164   51.922210 H        1 UNK        0.4000
     31 H12          20.979594    2.920096   51.571852 H        1 UNK        0.4000
     32 H13          23.103028    1.725737   52.781631 H        1 UNK        0.1500
     33 H14          26.831682   -1.341661   53.584333 H        1 UNK        0.1500
@<TRIPOS>BOND
     1    1    2 1
     2    2    3 ar
     3    3    4 ar
     4    4    5 ar
     5    5    6 ar
     6    6    7 1
     7    7    8 1
     8    8    9 2
     9    9   10 1
    10   10   11 2
    11   11   12 1
    12   12   13 ar
    13   13   14 ar
    14   14   15 ar
    15   15   16 1
    16   15   17 ar
    17   17   18 ar
    18    8   18 1
    19   12   18 ar
    20    6   19 ar
    21    2   19 ar
    22    1   20 1
    23    1   21 1
    24    1   22 1
    25    3   23 1
    26    4   24 1
    27    5   25 1
    28    7   26 1
    29   10   27 1
    30   13   28 1
    31   14   29 1
    32   16   30 1
    33   16   31 1
    34   17   32 1
    35   19   33 1
@<TRIPOS>SUBSTRUCTURE
1 UNK 1 RESIDUE 1 _ UNK
@<SCITEGIC>MOL_PROPERTY
TRIPOS_COMMENT
SciTegic.value.StringValue
> <Gold.Version>
5.3.0
> <Gold.Id.Protein>
1M17_traj_1ns_WTavg_model_1|1M17_traj_1ns_WTavg_5Awater_forGold_Pro|mol2
> <Gold.Protein.ActiveResidues>
LEU718  ALA743  CYS775  THR790  GLN791  LEU792  MET793  PRO794  GLY796  LEU844
THR854
> <Gold.Score>
Fitness  S(hb_ext) S(vdw_ext)  S(hb_int)    S(int)      intcor
45.75       1.14      33.73       0.00      -1.76      -3.76
> <Gold.Goldscore.Fitness>
45.7530
> <Gold.Goldscore.Internal.Vdw>
-1.6808
> <Gold.Goldscore.Internal.Torsion>
-3.8434
> <Gold.Goldscore.External.Vdw>
33.7281
> <Gold.Goldscore.Internal.HBond>
0.0000
> <Gold.Goldscore.External.HBond>
1.1377
> <Gold.Goldscore.Internal.Correction>
-3.7635
> <Gold.Goldscore.Reference.RMSD>
6.9708
> <Gold.Goldscore.Hbonds>
donor molecule, donor type, donor heavy atom, donor atom, acceptor molecule, acceptor atom, score
P1  H  1548  1549       L1    11  0.57
> <Gold.Goldscore.Internal.Vdw.Weighted>
-1.6808
> <Gold.Goldscore.Internal.Torsion.Weighted>
-3.8434
> <Gold.Goldscore.External.Vdw.Weighted>
46.3761
> <Gold.Goldscore.Internal.HBond.Weighted>
0.0000
> <Gold.Goldscore.External.HBond.Weighted>
1.1377
> <Gold.Goldscore.Internal.Correction.Weighted>
-3.7635
> <Gold.Reference.RMSD>
6.9708

@<SCITEGIC>MOL_PROPERTY
REMARK99
SciTegic.value.StringValue
REMARK  99  MacroMolecule created from Mol2 file
REMARK  99  CHEMBL336113|CHEMBL336113|mol2|1|dock3
REMARK  99  PROTEIN
REMARK  99  USER_CHARGES
REMARK  99  
REMARK  99  

@<SCITEGIC>ATOM_PROPERTY
Formal Charge
SciTegic.value.StringValue
1 0
2 0
3 0
4 0
5 0
6 0
7 0
8 0
9 0
10 0
11 0
12 0
13 0
14 0
15 0
16 0
17 0
18 0
19 0
20 0
21 0
22 0
23 0
24 0
25 0
26 0
27 0
28 0
29 0
30 0
31 0
32 0
33 0

@<SCITEGIC>ATOM_PROPERTY
pdb_tempFactor
SciTegic.value.DoubleValue
1 0.00
2 0.00
3 0.00
4 0.00
5 0.00
6 0.00
7 0.00
8 0.00
9 0.00
10 0.00
11 0.00
12 0.00
13 0.00
14 0.00
15 0.00
16 0.00
17 0.00
18 0.00
19 0.00
20 0.00
21 0.00
22 0.00
23 0.00
24 0.00
25 0.00
26 0.00
27 0.00
28 0.00
29 0.00
30 0.00
31 0.00
32 0.00
33 0.00

@<SCITEGIC>ATOM_PROPERTY
pdb_occupancy
SciTegic.value.DoubleValue
1 1.00
2 1.00
3 1.00
4 1.00
5 1.00
6 1.00
7 1.00
8 1.00
9 1.00
10 1.00
11 1.00
12 1.00
13 1.00
14 1.00
15 1.00
16 1.00
17 1.00
18 1.00
19 1.00
20 1.00
21 1.00
22 1.00
23 1.00
24 1.00
25 1.00
26 1.00
27 1.00
28 1.00
29 1.00
30 1.00
31 1.00
32 1.00
33 1.00

