#	Created by:	Discovery Studio
#	Creation time:	2018-10-05T11:41:27Z

@<TRIPOS>MOLECULE
CHEMBL327307
   36    38     1 0 0
PROTEIN
USER_CHARGES


@<TRIPOS>ATOM
      1 C1           17.987743    0.740929   53.697271 C.3      1 UNK        0.2800
      2 O2           18.987655    0.144757   54.324223 O.3      1 UNK       -0.3625
      3 C3           20.228338    0.326897   54.013013 C.2      1 UNK        0.0825
      4 C4           20.852689   -0.507270   54.808893 C.2      1 UNK       -0.1500
      5 C5           22.154629   -0.637858   54.858839 C.ar     1 UNK        0.3100
      6 N6           22.569474   -1.479523   55.687968 N.ar     1 UNK       -0.6200
      7 C7           23.856946   -1.679118   55.857976 C.ar     1 UNK        0.4700
      8 N8           24.707028   -0.967655   55.208098 N.ar     1 UNK       -0.6200
      9 C9           24.323512    0.045583   54.267400 C.ar     1 UNK        0.4100
     10 N10          25.523359    0.789411   53.659515 N.pl3    1 UNK       -0.6000
     11 C11          27.019601    0.551056   53.891259 C.ar     1 UNK        0.1000
     12 C12          27.750200    1.630627   54.218190 C.ar     1 UNK       -0.1500
     13 C13          29.207921    1.538630   54.449372 C.ar     1 UNK       -0.1500
     14 C14          29.846371    0.376610   54.336811 C.ar     1 UNK        0.1110
     15 Br15         31.716616    0.287707   54.643890 Br       1 UNK       -0.1110
     16 C16          29.109046   -0.829019   53.971058 C.ar     1 UNK        0.1110
     17 Br17         30.042797   -2.501604   53.821139 Br       1 UNK       -0.1110
     18 C18          27.789036   -0.774024   53.746110 C.ar     1 UNK       -0.1500
     19 C19          22.999605    0.190951   54.048203 C.ar     1 UNK        0.0000
     20 C20          22.335074    1.123297   53.048523 C.2      1 UNK       -0.1500
     21 C21          20.991598    1.267046   52.970915 C.2      1 UNK        0.0825
     22 O22          20.504072    2.335997   51.868777 O.3      1 UNK       -0.3625
     23 C23          21.275619    3.203780   50.970509 C.3      1 UNK        0.2800
     24 H1           18.012186    1.816443   53.921325 H        1 UNK        0.0000
     25 H2           17.037548    0.322907   54.047169 H        1 UNK        0.0000
     26 H3           18.095098    0.595350   52.615809 H        1 UNK        0.0000
     27 H4           20.271208   -1.113031   55.473304 H        1 UNK        0.1500
     28 H5           24.199296   -2.418148   56.547636 H        1 UNK        0.1500
     29 H6           25.292711    1.479745   52.931114 H        1 UNK        0.4000
     30 H7           27.282864    2.577680   54.318552 H        1 UNK        0.1500
     31 H8           29.757030    2.416686   54.711204 H        1 UNK        0.1500
     32 H9           27.288814   -1.682466   53.474042 H        1 UNK        0.1500
     33 H10          22.943844    1.676665   52.405796 H        1 UNK        0.1500
     34 H11          21.913635    2.582067   50.326389 H        1 UNK        0.0000
     35 H12          21.908172    3.878707   51.562902 H        1 UNK        0.0000
     36 H13          20.589371    3.789439   50.343777 H        1 UNK        0.0000
@<TRIPOS>BOND
     1    1    2 1
     2    2    3 1
     3    3    4 2
     4    4    5 1
     5    5    6 ar
     6    6    7 ar
     7    7    8 ar
     8    8    9 ar
     9    9   10 1
    10   10   11 1
    11   11   12 ar
    12   12   13 ar
    13   13   14 ar
    14   14   15 1
    15   14   16 ar
    16   16   17 1
    17   16   18 ar
    18   11   18 ar
    19    9   19 ar
    20    5   19 ar
    21   19   20 1
    22   20   21 2
    23    3   21 1
    24   21   22 1
    25   22   23 1
    26    1   24 1
    27    1   25 1
    28    1   26 1
    29    4   27 1
    30    7   28 1
    31   10   29 1
    32   12   30 1
    33   13   31 1
    34   18   32 1
    35   20   33 1
    36   23   34 1
    37   23   35 1
    38   23   36 1
@<TRIPOS>SUBSTRUCTURE
1 UNK 1 RESIDUE 1 _ UNK
@<SCITEGIC>MOL_PROPERTY
TRIPOS_COMMENT
SciTegic.value.StringValue
> <Gold.Version>
5.3.0
> <Gold.Id.Protein>
1M17_traj_1ns_WTavg_model_1|1M17_traj_1ns_WTavg_5Awater_forGold_Pro|mol2
> <Gold.Protein.ActiveResidues>
LEU718  ALA743  CYS775  THR790  GLN791  LEU792  MET793  PRO794  GLY796  LEU844
THR854
> <Gold.Score>
Fitness  S(hb_ext) S(vdw_ext)  S(hb_int)    S(int)      intcor
56.60       1.95      41.93       0.00      -3.00      -0.17
> <Gold.Goldscore.Fitness>
56.5970
> <Gold.Goldscore.Internal.Vdw>
1.4272
> <Gold.Goldscore.Internal.Torsion>
-4.5995
> <Gold.Goldscore.External.Vdw>
41.9267
> <Gold.Goldscore.Internal.HBond>
0.0000
> <Gold.Goldscore.External.HBond>
1.9499
> <Gold.Goldscore.Internal.Correction>
-0.1702
> <Gold.Goldscore.Reference.RMSD>
7.7170
> <Gold.Goldscore.Hbonds>
donor molecule, donor type, donor heavy atom, donor atom, acceptor molecule, acceptor atom, score
P1  H  1548  1549       L1     6  0.97
> <Gold.Goldscore.Internal.Vdw.Weighted>
1.4272
> <Gold.Goldscore.Internal.Torsion.Weighted>
-4.5995
> <Gold.Goldscore.External.Vdw.Weighted>
57.6492
> <Gold.Goldscore.Internal.HBond.Weighted>
0.0000
> <Gold.Goldscore.External.HBond.Weighted>
1.9499
> <Gold.Goldscore.Internal.Correction.Weighted>
-0.1702
> <Gold.Reference.RMSD>
7.7170

@<SCITEGIC>MOL_PROPERTY
REMARK99
SciTegic.value.StringValue
REMARK  99  MacroMolecule created from Mol2 file
REMARK  99  CHEMBL327307|CHEMBL327307|mol2|1|dock2
REMARK  99  PROTEIN
REMARK  99  USER_CHARGES
REMARK  99  
REMARK  99  

@<SCITEGIC>ATOM_PROPERTY
Formal Charge
SciTegic.value.StringValue
1 0
2 0
3 0
4 0
5 0
6 0
7 0
8 0
9 0
10 0
11 0
12 0
13 0
14 0
15 0
16 0
17 0
18 0
19 0
20 0
21 0
22 0
23 0
24 0
25 0
26 0
27 0
28 0
29 0
30 0
31 0
32 0
33 0
34 0
35 0
36 0

@<SCITEGIC>ATOM_PROPERTY
pdb_tempFactor
SciTegic.value.DoubleValue
1 0.00
2 0.00
3 0.00
4 0.00
5 0.00
6 0.00
7 0.00
8 0.00
9 0.00
10 0.00
11 0.00
12 0.00
13 0.00
14 0.00
15 0.00
16 0.00
17 0.00
18 0.00
19 0.00
20 0.00
21 0.00
22 0.00
23 0.00
24 0.00
25 0.00
26 0.00
27 0.00
28 0.00
29 0.00
30 0.00
31 0.00
32 0.00
33 0.00
34 0.00
35 0.00
36 0.00

@<SCITEGIC>ATOM_PROPERTY
pdb_occupancy
SciTegic.value.DoubleValue
1 1.00
2 1.00
3 1.00
4 1.00
5 1.00
6 1.00
7 1.00
8 1.00
9 1.00
10 1.00
11 1.00
12 1.00
13 1.00
14 1.00
15 1.00
16 1.00
17 1.00
18 1.00
19 1.00
20 1.00
21 1.00
22 1.00
23 1.00
24 1.00
25 1.00
26 1.00
27 1.00
28 1.00
29 1.00
30 1.00
31 1.00
32 1.00
33 1.00
34 1.00
35 1.00
36 1.00

