#	Created by:	Discovery Studio
#	Creation time:	2018-10-05T09:08:44Z

@<TRIPOS>MOLECULE
CHEMBL119033
   32    34     1 0 0
PROTEIN
USER_CHARGES


@<TRIPOS>ATOM
      1 C1           22.310810    2.311313   50.858546 C.3      1 UNK        0.2800
      2 O2           22.593543    2.153244   52.215156 O.3      1 UNK       -0.3625
      3 C3           22.187275    1.089319   53.061830 C.2      1 UNK        0.0825
      4 C4           20.881876    0.893633   52.891536 C.2      1 UNK       -0.1500
      5 C5           20.085005   -0.104413   53.578608 C.2      1 UNK       -0.1500
      6 C6           20.655662   -0.911544   54.457923 C.2      1 UNK       -0.1500
      7 C7           22.093207   -0.820675   54.757840 C.ar     1 UNK        0.3100
      8 N8           22.569292   -1.620979   55.605350 N.ar     1 UNK       -0.6200
      9 C9           23.896899   -1.611581   55.947881 C.ar     1 UNK        0.4700
     10 N10          24.689838   -0.777867   55.404442 N.ar     1 UNK       -0.6200
     11 C11          24.295097    0.174644   54.440514 C.ar     1 UNK        0.4100
     12 N12          25.340769    1.071469   53.904986 N.pl3    1 UNK       -0.6000
     13 C13          26.767731    0.756943   54.023219 C.ar     1 UNK        0.1000
     14 C14          27.612693    1.671858   54.516171 C.ar     1 UNK       -0.1500
     15 C15          29.042584    1.364928   54.637886 C.ar     1 UNK       -0.1500
     16 C16          29.511660    0.177937   54.260540 C.ar     1 UNK       -0.1500
     17 C17          28.623437   -0.824130   53.726820 C.ar     1 UNK        0.1110
     18 Br18         29.263537   -2.527502   53.179562 Br       1 UNK       -0.1110
     19 C19          27.336565   -0.566143   53.610351 C.ar     1 UNK       -0.1500
     20 C20          22.966281    0.184979   54.081825 C.ar     1 UNK        0.0000
     21 H1           23.098361    2.916070   50.387282 H        1 UNK        0.0000
     22 H2           21.341151    2.817195   50.743509 H        1 UNK        0.0000
     23 H3           22.267927    1.323910   50.376282 H        1 UNK        0.0000
     24 H4           20.419845    1.500140   52.223815 H        1 UNK        0.1500
     25 H5           18.991167   -0.186770   53.362251 H        1 UNK        0.1500
     26 H6           20.068790   -1.625643   54.945578 H        1 UNK        0.1500
     27 H7           24.263262   -2.322731   56.686433 H        1 UNK        0.1500
     28 H8           25.075382    1.905850   53.453125 H        1 UNK        0.4000
     29 H9           27.265043    2.623254   54.823267 H        1 UNK        0.1500
     30 H10          29.709964    2.094894   55.030073 H        1 UNK        0.1500
     31 H11          30.517530   -0.030550   54.349006 H        1 UNK        0.1500
     32 H12          26.708942   -1.330871   53.211340 H        1 UNK        0.1500
@<TRIPOS>BOND
     1    1    2 1
     2    2    3 1
     3    3    4 2
     4    4    5 1
     5    5    6 2
     6    6    7 1
     7    7    8 ar
     8    8    9 ar
     9    9   10 ar
    10   10   11 ar
    11   11   12 1
    12   12   13 1
    13   13   14 ar
    14   14   15 ar
    15   15   16 ar
    16   16   17 ar
    17   17   18 1
    18   17   19 ar
    19   13   19 ar
    20   11   20 ar
    21    3   20 1
    22    7   20 ar
    23    1   21 1
    24    1   22 1
    25    1   23 1
    26    4   24 1
    27    5   25 1
    28    6   26 1
    29    9   27 1
    30   12   28 1
    31   14   29 1
    32   15   30 1
    33   16   31 1
    34   19   32 1
@<TRIPOS>SUBSTRUCTURE
1 UNK 1 RESIDUE 1 _ UNK
@<SCITEGIC>MOL_PROPERTY
TRIPOS_COMMENT
SciTegic.value.StringValue
> <Gold.Version>
5.3.0
> <Gold.Id.Protein>
1M17_traj_1ns_WTavg_model_1|1M17_traj_1ns_WTavg_5Awater_forGold_Pro|mol2
> <Gold.Protein.ActiveResidues>
LEU718  ALA743  CYS775  THR790  GLN791  LEU792  MET793  PRO794  GLY796  LEU844
THR854
> <Gold.Score>
Fitness  S(hb_ext) S(vdw_ext)  S(hb_int)    S(int)      intcor
53.84       1.53      41.47       0.00      -4.71      -8.50
> <Gold.Goldscore.Fitness>
53.8403
> <Gold.Goldscore.Internal.Vdw>
-0.7019
> <Gold.Goldscore.Internal.Torsion>
-12.5036
> <Gold.Goldscore.External.Vdw>
41.4654
> <Gold.Goldscore.Internal.HBond>
0.0000
> <Gold.Goldscore.External.HBond>
1.5337
> <Gold.Goldscore.Internal.Correction>
-8.4973
> <Gold.Goldscore.Reference.RMSD>
7.2250
> <Gold.Goldscore.Hbonds>
donor molecule, donor type, donor heavy atom, donor atom, acceptor molecule, acceptor atom, score
P1  H  1548  1549       L1     8  0.77
> <Gold.Goldscore.Internal.Vdw.Weighted>
-0.7019
> <Gold.Goldscore.Internal.Torsion.Weighted>
-12.5036
> <Gold.Goldscore.External.Vdw.Weighted>
57.0149
> <Gold.Goldscore.Internal.HBond.Weighted>
0.0000
> <Gold.Goldscore.External.HBond.Weighted>
1.5337
> <Gold.Goldscore.Internal.Correction.Weighted>
-8.4973
> <Gold.Reference.RMSD>
7.2250

@<SCITEGIC>MOL_PROPERTY
REMARK99
SciTegic.value.StringValue
REMARK  99  MacroMolecule created from Mol2 file
REMARK  99  CHEMBL119033|CHEMBL119033|mol2|1|dock1
REMARK  99  PROTEIN
REMARK  99  USER_CHARGES
REMARK  99  
REMARK  99  

@<SCITEGIC>ATOM_PROPERTY
Formal Charge
SciTegic.value.StringValue
1 0
2 0
3 0
4 0
5 0
6 0
7 0
8 0
9 0
10 0
11 0
12 0
13 0
14 0
15 0
16 0
17 0
18 0
19 0
20 0
21 0
22 0
23 0
24 0
25 0
26 0
27 0
28 0
29 0
30 0
31 0
32 0

@<SCITEGIC>ATOM_PROPERTY
pdb_tempFactor
SciTegic.value.DoubleValue
1 0.00
2 0.00
3 0.00
4 0.00
5 0.00
6 0.00
7 0.00
8 0.00
9 0.00
10 0.00
11 0.00
12 0.00
13 0.00
14 0.00
15 0.00
16 0.00
17 0.00
18 0.00
19 0.00
20 0.00
21 0.00
22 0.00
23 0.00
24 0.00
25 0.00
26 0.00
27 0.00
28 0.00
29 0.00
30 0.00
31 0.00
32 0.00

@<SCITEGIC>ATOM_PROPERTY
pdb_occupancy
SciTegic.value.DoubleValue
1 1.00
2 1.00
3 1.00
4 1.00
5 1.00
6 1.00
7 1.00
8 1.00
9 1.00
10 1.00
11 1.00
12 1.00
13 1.00
14 1.00
15 1.00
16 1.00
17 1.00
18 1.00
19 1.00
20 1.00
21 1.00
22 1.00
23 1.00
24 1.00
25 1.00
26 1.00
27 1.00
28 1.00
29 1.00
30 1.00
31 1.00
32 1.00

