#	Created by:	Discovery Studio
#	Creation time:	2018-10-05T09:08:56Z

@<TRIPOS>MOLECULE
CHEMBL136492
   33    35     1 0 0
PROTEIN
USER_CHARGES


@<TRIPOS>ATOM
      1 C1           25.657888    2.149074   54.669846 C.3      1 UNK        0.3691
      2 N2           25.682005    0.672261   54.636279 N.pl3    1 UNK       -0.5691
      3 C3           26.905240   -0.035408   54.395956 C.ar     1 UNK        0.1000
      4 C4           28.095636    0.682570   54.273072 C.ar     1 UNK       -0.1500
      5 C5           29.288060    0.029641   53.997243 C.ar     1 UNK       -0.1500
      6 C6           29.295494   -1.346093   53.839280 C.ar     1 UNK       -0.1500
      7 C7           28.125124   -2.077478   53.959876 C.ar     1 UNK       -0.1500
      8 C8           26.923271   -1.424124   54.241863 C.ar     1 UNK       -0.1500
      9 C9           24.342281   -0.010599   54.764710 C.2      1 UNK        0.4100
     10 N10          24.273989   -1.033393   55.541946 N.2      1 UNK       -0.6200
     11 C11          23.019305   -1.710695   55.871158 C.2      1 UNK        0.4700
     12 N12          21.923586   -1.310136   55.358294 N.2      1 UNK       -0.6200
     13 C13          21.855620   -0.187347   54.398950 C.ar     1 UNK        0.3100
     14 C14          20.651293    0.209237   53.801360 C.ar     1 UNK       -0.1500
     15 C15          20.607556    1.268840   52.878480 C.ar     1 UNK       -0.1500
     16 C16          21.782574    1.952722   52.531603 C.ar     1 UNK        0.1000
     17 N17          21.782678    3.120043   51.517672 N.pl3    1 UNK       -0.9000
     18 C18          22.977192    1.535073   53.142742 C.ar     1 UNK       -0.1500
     19 C19          23.027744    0.484524   54.075311 C.ar     1 UNK        0.0000
     20 H1           25.780870    2.529865   53.648227 H        1 UNK        0.0000
     21 H2           26.495074    2.523971   55.277062 H        1 UNK        0.0000
     22 H3           24.702723    2.503995   55.082439 H        1 UNK        0.0000
     23 H4           28.110099    1.738054   54.381363 H        1 UNK        0.1500
     24 H5           30.191871    0.585090   53.900749 H        1 UNK        0.1500
     25 H6           30.182041   -1.830735   53.626960 H        1 UNK        0.1500
     26 H7           28.165339   -3.145882   53.825720 H        1 UNK        0.1500
     27 H8           26.017097   -1.988853   54.329447 H        1 UNK        0.1500
     28 H9           23.008053   -2.541702   56.563837 H        1 UNK        0.1500
     29 H10          19.737416   -0.313734   54.053549 H        1 UNK        0.1500
     30 H11          19.637257    1.554068   52.425062 H        1 UNK        0.1500
     31 H12          20.933393    3.419944   51.067027 H        1 UNK        0.4000
     32 H13          22.684842    3.602782   51.281606 H        1 UNK        0.4000
     33 H14          23.881129    2.018206   52.901344 H        1 UNK        0.1500
@<TRIPOS>BOND
     1    1    2 1
     2    2    3 1
     3    3    4 ar
     4    4    5 ar
     5    5    6 ar
     6    6    7 ar
     7    7    8 ar
     8    3    8 ar
     9    2    9 1
    10    9   10 2
    11   10   11 1
    12   11   12 2
    13   12   13 1
    14   13   14 ar
    15   14   15 ar
    16   15   16 ar
    17   16   17 1
    18   16   18 ar
    19   18   19 ar
    20    9   19 1
    21   13   19 ar
    22    1   20 1
    23    1   21 1
    24    1   22 1
    25    4   23 1
    26    5   24 1
    27    6   25 1
    28    7   26 1
    29    8   27 1
    30   11   28 1
    31   14   29 1
    32   15   30 1
    33   17   31 1
    34   17   32 1
    35   18   33 1
@<TRIPOS>SUBSTRUCTURE
1 UNK 1 RESIDUE 1 _ UNK
@<SCITEGIC>MOL_PROPERTY
TRIPOS_COMMENT
SciTegic.value.StringValue
> <Gold.Version>
5.3.0
> <Gold.Id.Protein>
1M17_traj_1ns_WTavg_model_1|1M17_traj_1ns_WTavg_5Awater_forGold_Pro|mol2
> <Gold.Protein.ActiveResidues>
LEU718  ALA743  CYS775  THR790  GLN791  LEU792  MET793  PRO794  GLY796  LEU844
THR854
> <Gold.Score>
Fitness  S(hb_ext) S(vdw_ext)  S(hb_int)    S(int)      intcor
39.95       1.87      27.98       0.00      -0.39      -5.72
> <Gold.Goldscore.Fitness>
39.9537
> <Gold.Goldscore.Internal.Vdw>
0.1744
> <Gold.Goldscore.Internal.Torsion>
-6.2829
> <Gold.Goldscore.External.Vdw>
27.9773
> <Gold.Goldscore.Internal.HBond>
0.0000
> <Gold.Goldscore.External.HBond>
1.8749
> <Gold.Goldscore.Internal.Correction>
-5.7185
> <Gold.Goldscore.Reference.RMSD>
6.4420
> <Gold.Goldscore.Hbonds>
donor molecule, donor type, donor heavy atom, donor atom, acceptor molecule, acceptor atom, score
P1  H  1548  1549       L1    12  0.94
> <Gold.Goldscore.Internal.Vdw.Weighted>
0.1744
> <Gold.Goldscore.Internal.Torsion.Weighted>
-6.2829
> <Gold.Goldscore.External.Vdw.Weighted>
38.4688
> <Gold.Goldscore.Internal.HBond.Weighted>
0.0000
> <Gold.Goldscore.External.HBond.Weighted>
1.8749
> <Gold.Goldscore.Internal.Correction.Weighted>
-5.7185
> <Gold.Reference.RMSD>
6.4420

@<SCITEGIC>MOL_PROPERTY
REMARK99
SciTegic.value.StringValue
REMARK  99  MacroMolecule created from Mol2 file
REMARK  99  CHEMBL136492|CHEMBL136492|mol2|1|dock3
REMARK  99  PROTEIN
REMARK  99  USER_CHARGES
REMARK  99  
REMARK  99  

@<SCITEGIC>MOL_PROPERTY
Clean Energy
SciTegic.value.DoubleValue
63.316189

@<SCITEGIC>ATOM_PROPERTY
Formal Charge
SciTegic.value.StringValue
1 0
2 0
3 0
4 0
5 0
6 0
7 0
8 0
9 0
10 0
11 0
12 0
13 0
14 0
15 0
16 0
17 0
18 0
19 0
20 0
21 0
22 0
23 0
24 0
25 0
26 0
27 0
28 0
29 0
30 0
31 0
32 0
33 0

@<SCITEGIC>ATOM_PROPERTY
pdb_tempFactor
SciTegic.value.DoubleValue
1 0.00
2 0.00
3 0.00
4 0.00
5 0.00
6 0.00
7 0.00
8 0.00
9 0.00
10 0.00
11 0.00
12 0.00
13 0.00
14 0.00
15 0.00
16 0.00
17 0.00
18 0.00
19 0.00
20 0.00
21 0.00
22 0.00
23 0.00
24 0.00
25 0.00
26 0.00
27 0.00
28 0.00
29 0.00
30 0.00
31 0.00
32 0.00
33 0.00

@<SCITEGIC>ATOM_PROPERTY
pdb_occupancy
SciTegic.value.DoubleValue
1 1.00
2 1.00
3 1.00
4 1.00
5 1.00
6 1.00
7 1.00
8 1.00
9 1.00
10 1.00
11 1.00
12 1.00
13 1.00
14 1.00
15 1.00
16 1.00
17 1.00
18 1.00
19 1.00
20 1.00
21 1.00
22 1.00
23 1.00
24 1.00
25 1.00
26 1.00
27 1.00
28 1.00
29 1.00
30 1.00
31 1.00
32 1.00
33 1.00

