#	Created by:	Discovery Studio
#	Creation time:	2018-10-05T09:02:07Z

@<TRIPOS>MOLECULE
CHEMBL92174
   36    38     1 0 0
PROTEIN
USER_CHARGES


@<TRIPOS>ATOM
      1 C1           18.058231   -0.875053   53.997881 C.3      1 UNK        0.2800
      2 O2           18.900819    0.069231   53.280418 O.3      1 UNK       -0.3625
      3 C3           20.192844    0.134479   53.561476 C.2      1 UNK        0.0825
      4 C4           20.753342   -0.619077   54.474809 C.2      1 UNK       -0.1500
      5 C5           22.027355   -0.591256   54.764359 C.ar     1 UNK        0.3100
      6 N6           22.375470   -1.394591   55.657636 N.ar     1 UNK       -0.6200
      7 C7           23.625762   -1.498873   56.024033 C.ar     1 UNK        0.4700
      8 N8           24.524691   -0.803191   55.426245 N.ar     1 UNK       -0.6200
      9 C9           24.229273    0.124331   54.362128 C.ar     1 UNK        0.4100
     10 N10          25.494641    0.793981   53.797216 N.pl3    1 UNK       -0.6000
     11 C11          26.937208    0.473555   53.967680 C.ar     1 UNK        0.1000
     12 C12          27.615761   -0.674092   53.723032 C.ar     1 UNK       -0.1500
     13 C13          29.100071   -0.736428   54.000947 C.ar     1 UNK       -0.1500
     14 C14          29.717862    0.330166   54.496300 C.ar     1 UNK       -0.1500
     15 C15          28.973925    1.540192   54.772220 C.ar     1 UNK       -0.1500
     16 C16          27.669714    1.594909   54.520297 C.ar     1 UNK        0.1110
     17 Br17         26.700412    3.164768   54.888675 Br       1 UNK       -0.1110
     18 C18          22.924757    0.265015   54.043743 C.ar     1 UNK        0.0000
     19 C19          22.326060    1.212865   53.026824 C.2      1 UNK       -0.1500
     20 C20          21.008070    1.212720   52.715154 C.2      1 UNK        0.0825
     21 O21          20.594740    2.284910   51.579812 O.3      1 UNK       -0.3625
     22 C22          21.427884    3.167119   50.736067 C.3      1 UNK        0.2800
     23 H1           18.082651   -0.651396   55.075449 H        1 UNK        0.0000
     24 H2           18.418530   -1.900776   53.825046 H        1 UNK        0.0000
     25 H3           17.024988   -0.787642   53.633047 H        1 UNK        0.0000
     26 H4           20.142218   -1.313553   55.007799 H        1 UNK        0.1500
     27 H5           23.903323   -2.170676   56.807196 H        1 UNK        0.1500
     28 H6           25.306736    1.670189   53.229449 H        1 UNK        0.4000
     29 H7           27.123942   -1.545140   53.336171 H        1 UNK        0.1500
     30 H8           29.686730   -1.641148   53.808246 H        1 UNK        0.1500
     31 H9           30.749424    0.295500   54.694114 H        1 UNK        0.1500
     32 H10          29.472570    2.389327   55.182310 H        1 UNK        0.1500
     33 H11          22.956025    1.881528   52.556100 H        1 UNK        0.1500
     34 H12          20.778579    3.710550   50.034095 H        1 UNK        0.0000
     35 H13          22.151243    2.566521   50.171115 H        1 UNK        0.0000
     36 H14          21.956612    3.891508   51.371515 H        1 UNK        0.0000
@<TRIPOS>BOND
     1    1    2 1
     2    2    3 1
     3    3    4 2
     4    4    5 1
     5    5    6 ar
     6    6    7 ar
     7    7    8 ar
     8    8    9 ar
     9    9   10 1
    10   10   11 1
    11   11   12 ar
    12   12   13 ar
    13   13   14 ar
    14   14   15 ar
    15   15   16 ar
    16   11   16 ar
    17   16   17 1
    18    9   18 ar
    19    5   18 ar
    20   18   19 1
    21   19   20 2
    22    3   20 1
    23   20   21 1
    24   21   22 1
    25    1   23 1
    26    1   24 1
    27    1   25 1
    28    4   26 1
    29    7   27 1
    30   10   28 1
    31   12   29 1
    32   13   30 1
    33   14   31 1
    34   15   32 1
    35   19   33 1
    36   22   34 1
    37   22   35 1
    38   22   36 1
@<TRIPOS>SUBSTRUCTURE
1 UNK 1 RESIDUE 1 _ UNK
@<SCITEGIC>MOL_PROPERTY
TRIPOS_COMMENT
SciTegic.value.StringValue
> <Gold.Version>
5.3.0
> <Gold.Id.Protein>
1M17_traj_1ns_WTavg_model_1|1M17_traj_1ns_WTavg_5Awater_forGold_Pro|mol2
> <Gold.Protein.ActiveResidues>
LEU718  ALA743  CYS775  THR790  GLN791  LEU792  MET793  PRO794  GLY796  LEU844
THR854
> <Gold.Score>
Fitness  S(hb_ext) S(vdw_ext)  S(hb_int)    S(int)      intcor
57.88       1.66      42.52       0.00      -2.24      -2.12
> <Gold.Goldscore.Fitness>
57.8808
> <Gold.Goldscore.Internal.Vdw>
0.5958
> <Gold.Goldscore.Internal.Torsion>
-4.9580
> <Gold.Goldscore.External.Vdw>
42.5180
> <Gold.Goldscore.Internal.HBond>
0.0000
> <Gold.Goldscore.External.HBond>
1.6600
> <Gold.Goldscore.Internal.Correction>
-2.1207
> <Gold.Goldscore.Reference.RMSD>
7.2503
> <Gold.Goldscore.Hbonds>
donor molecule, donor type, donor heavy atom, donor atom, acceptor molecule, acceptor atom, score
P1  H  1548  1549       L1     6  0.83
> <Gold.Goldscore.Internal.Vdw.Weighted>
0.5958
> <Gold.Goldscore.Internal.Torsion.Weighted>
-4.9580
> <Gold.Goldscore.External.Vdw.Weighted>
58.4622
> <Gold.Goldscore.Internal.HBond.Weighted>
0.0000
> <Gold.Goldscore.External.HBond.Weighted>
1.6600
> <Gold.Goldscore.Internal.Correction.Weighted>
-2.1207
> <Gold.Reference.RMSD>
7.2503

@<SCITEGIC>MOL_PROPERTY
REMARK99
SciTegic.value.StringValue
REMARK  99  MacroMolecule created from Mol2 file
REMARK  99  CHEMBL92174|CHEMBL92174|mol2|1|dock10
REMARK  99  PROTEIN
REMARK  99  USER_CHARGES
REMARK  99  
REMARK  99  

@<SCITEGIC>MOL_PROPERTY
Clean Energy
SciTegic.value.DoubleValue
-5.836765

@<SCITEGIC>ATOM_PROPERTY
Formal Charge
SciTegic.value.StringValue
1 0
2 0
3 0
4 0
5 0
6 0
7 0
8 0
9 0
10 0
11 0
12 0
13 0
14 0
15 0
16 0
17 0
18 0
19 0
20 0
21 0
22 0
23 0
24 0
25 0
26 0
27 0
28 0
29 0
30 0
31 0
32 0
33 0
34 0
35 0
36 0

@<SCITEGIC>ATOM_PROPERTY
pdb_tempFactor
SciTegic.value.DoubleValue
1 0.00
2 0.00
3 0.00
4 0.00
5 0.00
6 0.00
7 0.00
8 0.00
9 0.00
10 0.00
11 0.00
12 0.00
13 0.00
14 0.00
15 0.00
16 0.00
17 0.00
18 0.00
19 0.00
20 0.00
21 0.00
22 0.00
23 0.00
24 0.00
25 0.00
26 0.00
27 0.00
28 0.00
29 0.00
30 0.00
31 0.00
32 0.00
33 0.00
34 0.00
35 0.00
36 0.00

@<SCITEGIC>ATOM_PROPERTY
pdb_occupancy
SciTegic.value.DoubleValue
1 1.00
2 1.00
3 1.00
4 1.00
5 1.00
6 1.00
7 1.00
8 1.00
9 1.00
10 1.00
11 1.00
12 1.00
13 1.00
14 1.00
15 1.00
16 1.00
17 1.00
18 1.00
19 1.00
20 1.00
21 1.00
22 1.00
23 1.00
24 1.00
25 1.00
26 1.00
27 1.00
28 1.00
29 1.00
30 1.00
31 1.00
32 1.00
33 1.00
34 1.00
35 1.00
36 1.00

