CHEMBL96627


 23 25  0  0  0  0  0  0  0  0999 V2000
   23.9841   -0.2867   53.4105 C   0  0  0  0  0  0  0  0  0  0  0  0
   24.7328   -0.6081   54.4806 C   0  0  0  0  0  0  0  0  0  0  0  0
   26.0715   -0.0070   54.7177 C   0  0  0  0  0  0  0  0  0  0  0  0
   26.6123    0.8826   53.8904 C   0  0  0  0  0  0  0  0  0  0  0  0
   27.9189    1.4493   54.1506 N   0  0  0  0  0  0  0  0  0  0  0  0
   28.4380    2.3033   53.3556 C   0  0  0  0  0  0  0  0  0  0  0  0
   27.7139    2.7401   52.1381 N   0  0  0  0  0  0  0  0  0  0  0  0
   26.5599    2.3026   51.8199 C   0  0  0  0  0  0  0  0  0  0  0  0
   25.8779    1.2969   52.6991 C   0  0  0  0  0  0  0  0  0  0  0  0
   24.6470    0.8088   52.3901 C   0  0  0  0  0  0  0  0  0  0  0  0
   21.8049   -1.5005   54.5636 C   0  0  0  0  0  0  0  0  0  0  0  0
   22.6746   -1.0679   53.4529 O   0  0  0  0  0  0  0  0  0  0  0  0
   25.9356    2.7850   50.6179 N   0  0  0  0  0  0  0  0  0  0  0  0
   25.2541    2.0916   50.1606 H   0  0  0  0  0  0  0  0  0  0  0  0
   26.1461    4.0706   50.0031 C   0  0  0  0  0  0  0  0  0  0  0  0
   27.1022    4.3455   49.0893 C   0  0  0  0  0  0  0  0  0  0  0  0
   27.2128    5.7444   48.5205 C   0  0  0  0  0  0  0  0  0  0  0  0
   26.3644    6.6722   48.9344 C   0  0  0  0  0  0  0  0  0  0  0  0
   25.3458    6.3604   49.9145 C   0  0  0  0  0  0  0  0  0  0  0  0
   24.1468    7.7288   50.4801 Br  0  0  0  0  0  0  0  0  0  0  0  0
   25.2358    5.1427   50.4216 C   0  0  0  0  0  0  0  0  0  0  0  0
   24.1530    1.3969   51.1493 O   0  0  0  0  0  0  0  0  0  0  0  0
   22.8289    1.5680   50.9039 C   0  0  0  0  0  0  0  0  0  0  0  0
 11 12  1  0  0  0
 12  1  1  0  0  0
  1  2  2  0  0  0
  2  3  1  0  0  0
  3  4  2  0  0  0
  4  5  1  0  0  0
  5  6  2  0  0  0
  6  7  1  0  0  0
  7  8  2  0  0  0
  8 13  1  0  0  0
 13 15  1  0  0  0
 15 16  2  0  0  0
 16 17  1  0  0  0
 17 18  2  0  0  0
 18 19  1  0  0  0
 19 20  1  0  0  0
 19 21  2  0  0  0
 15 21  1  0  0  0
  8  9  1  0  0  0
  4  9  1  0  0  0
  9 10  2  0  0  0
  1 10  1  0  0  0
 10 22  1  0  0  0
 22 23  1  0  0  0
 13 14  1  0  0  0
M  END
> <minimizedAffinity>
-7.50999

$$$$
