CHEMBL94431


 23 25  0  0  0  0  0  0  0  0999 V2000
   20.3171   -0.4160   53.1999 C   0  0  0  0  0  0  0  0  0  0  0  0
   20.9449   -0.8919   54.2479 C   0  0  0  0  0  0  0  0  0  0  0  0
   22.2433   -0.8404   54.4099 C   0  0  0  0  0  0  0  0  0  0  0  0
   22.6767   -1.3684   55.4565 N   0  0  0  0  0  0  0  0  0  0  0  0
   23.9689   -1.4009   55.6806 C   0  0  0  0  0  0  0  0  0  0  0  0
   24.7989   -0.9265   54.8214 N   0  0  0  0  0  0  0  0  0  0  0  0
   24.4192   -0.3421   53.6274 C   0  0  0  0  0  0  0  0  0  0  0  0
   23.0857   -0.2551   53.3890 C   0  0  0  0  0  0  0  0  0  0  0  0
   22.4043    0.3849   52.1794 C   0  0  0  0  0  0  0  0  0  0  0  0
   21.0651    0.3297   51.9948 C   0  0  0  0  0  0  0  0  0  0  0  0
   18.1464   -0.7703   52.5190 C   0  0  0  0  0  0  0  0  0  0  0  0
   19.0827   -0.7116   53.4512 O   0  0  0  0  0  0  0  0  0  0  0  0
   25.6255    0.0960   52.8280 N   0  0  0  0  0  0  0  0  0  0  0  0
   25.4529    0.6963   52.0299 H   0  0  0  0  0  0  0  0  0  0  0  0
   26.9699   -0.0907   53.1895 C   0  0  0  0  0  0  0  0  0  0  0  0
   27.5718   -1.2543   52.9004 C   0  0  0  0  0  0  0  0  0  0  0  0
   28.9777   -1.4659   53.2560 C   0  0  0  0  0  0  0  0  0  0  0  0
   29.6478   -0.4950   53.8665 C   0  0  0  0  0  0  0  0  0  0  0  0
   28.9804    0.7650   54.1505 C   0  0  0  0  0  0  0  0  0  0  0  0
   29.5940    1.7397   54.7532 F   0  0  0  0  0  0  0  0  0  0  0  0
   27.7328    0.9562   53.8152 C   0  0  0  0  0  0  0  0  0  0  0  0
   20.5697    1.0029   50.6226 O   0  0  0  0  0  0  0  0  0  0  0  0
   21.1811    1.0165   49.2865 C   0  0  0  0  0  0  0  0  0  0  0  0
 11 12  1  0  0  0
 12  1  1  0  0  0
  1  2  2  0  0  0
  2  3  1  0  0  0
  3  4  2  0  0  0
  4  5  1  0  0  0
  5  6  2  0  0  0
  6  7  1  0  0  0
  7 13  1  0  0  0
 13 15  1  0  0  0
 15 16  2  0  0  0
 16 17  1  0  0  0
 17 18  2  0  0  0
 18 19  1  0  0  0
 19 20  1  0  0  0
 19 21  2  0  0  0
 15 21  1  0  0  0
  7  8  2  0  0  0
  3  8  1  0  0  0
  8  9  1  0  0  0
  9 10  2  0  0  0
  1 10  1  0  0  0
 10 22  1  0  0  0
 22 23  1  0  0  0
 13 14  1  0  0  0
M  END
> <minimizedAffinity>
-8.03897

$$$$
