CHEMBL379017


 40 43  0  0  0  0  0  0  0  0999 V2000
   21.2895   -0.4341   53.4640 C   0  0  0  0  0  0  0  0  0  0  0  0
   22.5023   -0.1083   53.1539 C   0  0  0  0  0  0  0  0  0  0  0  0
   22.7808    0.7181   52.0761 C   0  0  0  0  0  0  0  0  0  0  0  0
   21.7408    1.1988   51.4048 C   0  0  0  0  0  0  0  0  0  0  0  0
   21.9549    2.0224   50.3774 C   0  0  0  0  0  0  0  0  0  0  0  0
   20.9725    2.4811   49.7359 N   0  0  0  0  0  0  0  0  0  0  0  0
   19.5971    2.1595   50.0438 C   0  0  0  0  0  0  0  0  0  0  0  0
   19.3380    1.3838   51.0073 N   0  0  0  0  0  0  0  0  0  0  0  0
   20.3766    0.8696   51.7344 C   0  0  0  0  0  0  0  0  0  0  0  0
   20.1521    0.0647   52.7343 C   0  0  0  0  0  0  0  0  0  0  0  0
   21.1537    3.1011   48.9726 Xx  0  0  0  0  0  0  0  0  0  0  0  0
   18.3924    1.1504   51.2338 Xx  0  0  0  0  0  0  0  0  0  0  0  0
   22.4932   -1.4135   55.1455 C   0  0  0  0  0  0  0  0  0  0  0  0
   21.2462   -1.2210   54.4489 O   0  0  0  0  0  0  0  0  0  0  0  0
   20.5809   -0.8600   55.1025 Xx  0  0  0  0  0  0  0  0  0  0  0  0
   20.9377   -2.1126   54.1174 Xx  0  0  0  0  0  0  0  0  0  0  0  0
   24.1335    1.0695   51.6822 O   0  0  0  0  0  0  0  0  0  0  0  0
   24.1412    2.0539   51.5060 Xx  0  0  0  0  0  0  0  0  0  0  0  0
   24.3289    0.5776   50.8337 Xx  0  0  0  0  0  0  0  0  0  0  0  0
   25.1021    0.8239   52.4917 C   0  0  0  0  0  0  0  0  0  0  0  0
   26.2608    0.1739   51.7430 C   0  0  0  0  0  0  0  0  0  0  0  0
   27.2996   -0.0541   52.7211 C   0  0  0  0  0  0  0  0  0  0  0  0
   27.7522    1.2319   53.3172 N   0  0  0  0  0  0  0  0  0  0  0  0
   26.6419    1.9130   53.9988 C   0  0  0  0  0  0  0  0  0  0  0  0
   25.5443    2.1677   53.0327 C   0  0  0  0  0  0  0  0  0  0  0  0
   28.0914    1.8554   52.6128 Xx  0  0  0  0  0  0  0  0  0  0  0  0
   28.9057    0.8419   54.3912 S   0  0  0  0  0  0  0  0  0  0  0  0
   29.7668    2.0596   54.7008 O   0  0  0  0  0  0  0  0  0  0  0  0
   28.1859    0.4363   55.6564 O   0  0  0  0  0  0  0  0  0  0  0  0
   29.9554   -0.5365   53.8308 C   0  0  0  0  0  0  0  0  0  0  0  0
   23.2883    2.3547   50.0630 N   0  0  0  0  0  0  0  0  0  0  0  0
   23.9110    1.5655   49.7028 H   0  0  0  0  0  0  0  0  0  0  0  0
   23.8205    3.7076   50.2423 C   0  0  0  0  0  0  0  0  0  0  0  0
   23.2616    4.5770   51.0978 C   0  0  0  0  0  0  0  0  0  0  0  0
   23.8372    5.9621   51.2389 C   0  0  0  0  0  0  0  0  0  0  0  0
   24.9031    6.3314   50.5163 C   0  0  0  0  0  0  0  0  0  0  0  0
   25.4332    7.5968   50.6383 F   0  0  0  0  0  0  0  0  0  0  0  0
   25.4927    5.3594   49.5921 C   0  0  0  0  0  0  0  0  0  0  0  0
   26.8535    5.7160   48.6226 Cl  0  0  0  0  0  0  0  0  0  0  0  0
   24.9838    4.1474   49.4728 C   0  0  0  0  0  0  0  0  0  0  0  0
 13 14  1  0  0  0
 14  1  1  0  0  0
  1  2  2  0  0  0
  2  3  1  0  0  0
  3 17  1  0  0  0
 17 20  1  0  0  0
 20 21  1  0  0  0
 21 22  1  0  0  0
 22 23  1  0  0  0
 23 24  1  0  0  0
 24 25  1  0  0  0
 20 25  1  0  0  0
 23 27  1  0  0  0
 27 28  2  0  0  0
 27 29  2  0  0  0
 27 30  1  0  0  0
  3  4  2  0  0  0
  4  5  1  0  0  0
  5 31  1  0  0  0
 31 33  1  0  0  0
 33 34  2  0  0  0
 34 35  1  0  0  0
 35 36  2  0  0  0
 36 37  1  0  0  0
 36 38  1  0  0  0
 38 39  1  0  0  0
 38 40  2  0  0  0
 33 40  1  0  0  0
  5  6  2  0  0  0
  6  7  1  0  0  0
  7  8  2  0  0  0
  8  9  1  0  0  0
  4  9  1  0  0  0
  9 10  2  0  0  0
  1 10  1  0  0  0
 31 32  1  0  0  0
 14 15  1  0  0  0
 14 16  1  0  0  0
 17 18  1  0  0  0
 17 19  1  0  0  0
 23 26  1  0  0  0
  6 11  1  0  0  0
  8 12  1  0  0  0
M  END
> <minimizedAffinity>
-8.74698

$$$$
