CHEMBL63469


 25 27  0  0  0  0  0  0  0  0999 V2000
   28.3489   -2.9997   53.0491 N   0  0  0  0  0  0  0  0  0  0  0  0
   27.6165   -1.6011   53.1275 C   0  0  0  0  0  0  0  0  0  0  0  0
   26.2600   -1.4217   53.0762 C   0  0  0  0  0  0  0  0  0  0  0  0
   25.6241    0.0089   53.1619 C   0  0  0  0  0  0  0  0  0  0  0  0
   24.2937    0.2528   53.1171 C   0  0  0  0  0  0  0  0  0  0  0  0
   23.8818    1.6418   53.2102 N   0  0  0  0  0  0  0  0  0  0  0  0
   24.6767    2.6450   53.3305 C   0  0  0  0  0  0  0  0  0  0  0  0
   26.0462    2.4186   53.3785 N   0  0  0  0  0  0  0  0  0  0  0  0
   26.5283    1.2019   53.3029 C   0  0  0  0  0  0  0  0  0  0  0  0
   28.0216    0.8892   53.3499 C   0  0  0  0  0  0  0  0  0  0  0  0
   28.4898   -0.3960   53.2680 C   0  0  0  0  0  0  0  0  0  0  0  0
   30.2118   -0.7407   53.3235 Cl  0  0  0  0  0  0  0  0  0  0  0  0
   27.8048   -3.9087   52.9486 H   0  0  0  0  0  0  0  0  0  0  0  0
   29.3732   -3.0404   53.0955 H   0  0  0  0  0  0  0  0  0  0  0  0
   22.9009    1.8337   53.1782 Xx  0  0  0  0  0  0  0  0  0  0  0  0
   26.6720    3.1930   53.4720 Xx  0  0  0  0  0  0  0  0  0  0  0  0
   23.1999   -0.8216   52.9764 N   0  0  0  0  0  0  0  0  0  0  0  0
   23.4470   -1.8330   53.0940 H   0  0  0  0  0  0  0  0  0  0  0  0
   21.8252   -0.4664   52.6831 C   0  0  0  0  0  0  0  0  0  0  0  0
   20.8562   -0.7785   53.5507 C   0  0  0  0  0  0  0  0  0  0  0  0
   19.4652   -0.4210   53.2575 C   0  0  0  0  0  0  0  0  0  0  0  0
   19.1577    0.2148   52.1294 C   0  0  0  0  0  0  0  0  0  0  0  0
   20.1897    0.5600   51.1807 C   0  0  0  0  0  0  0  0  0  0  0  0
   19.7837    1.4677   49.5606 Br  0  0  0  0  0  0  0  0  0  0  0  0
   21.4450    0.2435   51.4335 C   0  0  0  0  0  0  0  0  0  0  0  0
  1  2  1  0  0  0
  2  3  2  0  0  0
  3  4  1  0  0  0
  4  5  2  0  0  0
  5 17  1  0  0  0
 17 19  1  0  0  0
 19 20  2  0  0  0
 20 21  1  0  0  0
 21 22  2  0  0  0
 22 23  1  0  0  0
 23 24  1  0  0  0
 23 25  2  0  0  0
 19 25  1  0  0  0
  5  6  1  0  0  0
  6  7  2  0  0  0
  7  8  1  0  0  0
  8  9  2  0  0  0
  4  9  1  0  0  0
  9 10  1  0  0  0
 10 11  2  0  0  0
  2 11  1  0  0  0
 11 12  1  0  0  0
  1 13  1  0  0  0
  1 14  1  0  0  0
 17 18  1  0  0  0
  6 15  1  0  0  0
  8 16  1  0  0  0
M  CHG 1   6   1
M  CHG 1   8   1
M  END
> <minimizedAffinity>
-7.79214

$$$$
