CHEMBL173498|CHEMBL173498|mol2|1|dock1


 23 26  0  0  0  0  0  0  0  0999 V2000
   24.0517   -0.2597   53.4914 C   0  0  0  0  0  0  0  0  0  0  0  0
   24.5066   -0.7911   54.5682 N   0  0  0  0  0  0  0  0  0  0  0  0
   23.6501   -1.4569   55.5736 C   0  0  0  0  0  0  0  0  0  0  0  0
   22.4405   -1.5467   55.4455 N   0  0  0  0  0  0  0  0  0  0  0  0
   21.8642   -0.9990   54.3096 C   0  0  0  0  0  0  0  0  0  0  0  0
   20.5931   -1.1166   54.2172 C   0  0  0  0  0  0  0  0  0  0  0  0
   19.9184   -0.6129   53.1377 C   0  0  0  0  0  0  0  0  0  0  0  0
   18.7376   -0.8035   53.2000 N   0  0  0  0  0  0  0  0  0  0  0  0
   17.8777   -0.3606   52.1866 C   0  0  0  0  0  0  0  0  0  0  0  0
   18.3524    0.2901   51.1167 C   0  0  0  0  0  0  0  0  0  0  0  0
   19.7303    0.5259   51.0197 N   0  0  0  0  0  0  0  0  0  0  0  0
   20.5122    0.0817   52.0166 C   0  0  0  0  0  0  0  0  0  0  0  0
   22.0153    0.2128   52.1404 C   0  0  0  0  0  0  0  0  0  0  0  0
   22.6294   -0.3126   53.2448 C   0  0  0  0  0  0  0  0  0  0  0  0
   25.0520    0.3700   52.5864 N   0  0  0  0  0  0  0  0  0  0  0  0
   24.7639    0.5935   51.6010 H   0  0  0  0  0  0  0  0  0  0  0  0
   29.8665   -1.5807   53.4869 Br  0  0  0  0  0  0  0  0  0  0  0  0
   28.6781   -0.0958   53.3986 C   0  0  0  0  0  0  0  0  0  0  0  0
   29.1361    1.1176   53.6710 C   0  0  0  0  0  0  0  0  0  0  0  0
   28.2718    2.2725   53.6168 C   0  0  0  0  0  0  0  0  0  0  0  0
   26.9690    2.1151   53.2817 C   0  0  0  0  0  0  0  0  0  0  0  0
   26.4344    0.7108   52.9652 C   0  0  0  0  0  0  0  0  0  0  0  0
   27.2934   -0.3107   53.0360 C   0  0  0  0  0  0  0  0  0  0  0  0
 17 18  1  0  0  0
 18 19  2  0  0  0
 19 20  1  0  0  0
 20 21  2  0  0  0
 21 22  1  0  0  0
 22 15  1  0  0  0
 15  1  1  0  0  0
  1  2  2  0  0  0
  2  3  1  0  0  0
  3  4  2  0  0  0
  4  5  1  0  0  0
  5  6  2  0  0  0
  6  7  1  0  0  0
  7  8  2  0  0  0
  8  9  1  0  0  0
  9 10  2  0  0  0
 10 11  1  0  0  0
 11 12  2  0  0  0
  7 12  1  0  0  0
 12 13  1  0  0  0
 13 14  2  0  0  0
  1 14  1  0  0  0
  5 14  1  0  0  0
 22 23  2  0  0  0
 18 23  1  0  0  0
 15 16  1  0  0  0
M  END
> <minimizedAffinity>
-8.40954

$$$$
