CHEMBL93051


 22 25  0  0  0  0  0  0  0  0999 V2000
   24.1225    0.5725   53.1466 C   0  0  0  0  0  0  0  0  0  0  0  0
   23.6236    1.7642   53.1371 N   0  0  0  0  0  0  0  0  0  0  0  0
   24.4394    3.0133   53.2137 C   0  0  0  0  0  0  0  0  0  0  0  0
   25.7018    2.9590   53.2941 N   0  0  0  0  0  0  0  0  0  0  0  0
   26.3907    1.6719   53.3141 C   0  0  0  0  0  0  0  0  0  0  0  0
   27.7251    1.5873   53.3986 C   0  0  0  0  0  0  0  0  0  0  0  0
   28.3497    0.2472   53.4134 C   0  0  0  0  0  0  0  0  0  0  0  0
   29.6385   -0.0220   53.4915 O   0  0  0  0  0  0  0  0  0  0  0  0
   29.8761   -1.4595   53.4794 C   0  0  0  0  0  0  0  0  0  0  0  0
   28.5539   -1.9793   53.3840 O   0  0  0  0  0  0  0  0  0  0  0  0
   27.6675   -0.8592   53.3481 C   0  0  0  0  0  0  0  0  0  0  0  0
   26.1873   -0.8034   53.2536 C   0  0  0  0  0  0  0  0  0  0  0  0
   25.5853    0.4108   53.2380 C   0  0  0  0  0  0  0  0  0  0  0  0
   23.1667   -0.5905   53.0627 N   0  0  0  0  0  0  0  0  0  0  0  0
   23.5659   -1.5623   53.1479 H   0  0  0  0  0  0  0  0  0  0  0  0
   19.3648    1.2032   49.8694 Br  0  0  0  0  0  0  0  0  0  0  0  0
   19.8992    0.3100   51.4657 C   0  0  0  0  0  0  0  0  0  0  0  0
   18.9708   -0.1490   52.2917 C   0  0  0  0  0  0  0  0  0  0  0  0
   19.3253   -0.8314   53.5119 C   0  0  0  0  0  0  0  0  0  0  0  0
   20.6307   -1.0082   53.8224 C   0  0  0  0  0  0  0  0  0  0  0  0
   21.7106   -0.4790   52.8699 C   0  0  0  0  0  0  0  0  0  0  0  0
   21.3082    0.1436   51.7573 C   0  0  0  0  0  0  0  0  0  0  0  0
 16 17  1  0  0  0
 17 18  2  0  0  0
 18 19  1  0  0  0
 19 20  2  0  0  0
 20 21  1  0  0  0
 21 14  1  0  0  0
 14  1  1  0  0  0
  1  2  2  0  0  0
  2  3  1  0  0  0
  3  4  2  0  0  0
  4  5  1  0  0  0
  5  6  2  0  0  0
  6  7  1  0  0  0
  7  8  1  0  0  0
  8  9  1  0  0  0
  9 10  1  0  0  0
 10 11  1  0  0  0
  7 11  2  0  0  0
 11 12  1  0  0  0
 12 13  2  0  0  0
  1 13  1  0  0  0
  5 13  1  0  0  0
 21 22  2  0  0  0
 17 22  1  0  0  0
 14 15  1  0  0  0
M  END
> <minimizedAffinity>
-8.05053

$$$$
