CHEMBL2018762|CHEMBL2018762|mol2|1|dock1_error


 30 32  0  0  0  0  0  0  0  0999 V2000
   25.5587    3.5891   49.7200 N   0  0  0  0  0  0  0  0  0  0  0  0
   24.6447    3.3646   49.2473 H   0  0  0  0  0  0  0  0  0  0  0  0
   26.0302    2.7984   50.9207 C   0  0  0  0  0  0  0  0  0  0  0  0
   27.2023    2.8695   51.5213 N   0  0  0  0  0  0  0  0  0  0  0  0
   27.4347    2.1401   52.8038 C   0  0  0  0  0  0  0  0  0  0  0  0
   26.5226    1.4985   53.3399 N   0  0  0  0  0  0  0  0  0  0  0  0
   25.3446    1.4463   52.7104 C   0  0  0  0  0  0  0  0  0  0  0  0
   24.3244    0.8026   53.3118 C   0  0  0  0  0  0  0  0  0  0  0  0
   23.0761    0.7226   52.7445 C   0  0  0  0  0  0  0  0  0  0  0  0
   22.7953    1.2484   51.4576 C   0  0  0  0  0  0  0  0  0  0  0  0
   23.8538    1.9176   50.8743 C   0  0  0  0  0  0  0  0  0  0  0  0
   25.0842    2.0401   51.4981 C   0  0  0  0  0  0  0  0  0  0  0  0
   22.4679    0.1407   53.6856 O   0  0  0  0  0  0  0  0  0  0  0  0
   21.7975   -0.5019   54.7361 C   0  0  0  0  0  0  0  0  0  0  0  0
   21.6188    1.3301   50.5310 O   0  0  0  0  0  0  0  0  0  0  0  0
   20.4941    1.4148   49.6488 C   0  0  0  0  0  0  0  0  0  0  0  0
   28.1688    5.9154   48.4153 C   0  0  0  0  0  0  0  0  0  0  0  0
   27.5118    4.7268   48.7414 C   0  0  0  0  0  0  0  0  0  0  0  0
   26.2607    4.7600   49.3565 C   0  0  0  0  0  0  0  0  0  0  0  0
   25.6701    5.9797   49.6265 C   0  0  0  0  0  0  0  0  0  0  0  0
   26.2821    7.1716   49.3159 C   0  0  0  0  0  0  0  0  0  0  0  0
   27.5276    7.1457   48.7200 C   0  0  0  0  0  0  0  0  0  0  0  0
   28.0178    8.5241   48.4855 C   0  0  0  0  0  0  0  0  0  0  0  0
   30.7499    5.6916   48.5157 C   0  0  0  0  0  0  0  0  0  0  0  0
   30.6826    5.7627   49.7886 O   0  0  0  0  0  0  0  0  0  0  0  0
   29.5072    5.7380   47.7752 N   0  0  0  0  0  0  0  0  0  0  0  0
   29.5621    5.5711   46.7543 H   0  0  0  0  0  0  0  0  0  0  0  0
   31.9778    5.5890   47.8372 O   0  0  0  0  0  0  0  0  0  0  0  0
   32.1008    3.4530   46.6588 C   0  0  0  0  0  0  0  0  0  0  0  0
   32.4249    4.2445   47.9173 C   0  0  0  0  0  0  0  0  0  0  0  0
 29 30  1  0  0  0
 30 28  1  0  0  0
 28 24  1  0  0  0
 24 25  2  0  0  0
 24 26  1  0  0  0
 26 17  1  0  0  0
 17 18  2  0  0  0
 18 19  1  0  0  0
 19  1  1  0  0  0
  1  3  1  0  0  0
  3  4  2  0  0  0
  4  5  1  0  0  0
  5  6  2  0  0  0
  6  7  1  0  0  0
  7  8  2  0  0  0
  8  9  1  0  0  0
  9 13  1  0  0  0
 13 14  1  0  0  0
  9 10  2  0  0  0
 10 15  1  0  0  0
 15 16  1  0  0  0
 10 11  1  0  0  0
 11 12  2  0  0  0
  3 12  1  0  0  0
  7 12  1  0  0  0
 19 20  2  0  0  0
 20 21  1  0  0  0
 21 22  2  0  0  0
 17 22  1  0  0  0
 22 23  1  0  0  0
 26 27  1  0  0  0
  1  2  1  0  0  0
M  END
> <minimizedAffinity>
-7.50034

$$$$
