CHEMBL93635|CHEMBL93635|mol2|1|dock4


 21 23  0  0  0  0  0  0  0  0999 V2000
   26.4783    0.7141   54.3437 C   0  0  0  0  0  0  0  0  0  0  0  0
   25.7565   -0.2122   53.7350 C   0  0  0  0  0  0  0  0  0  0  0  0
   24.6183    0.1035   52.8957 C   0  0  0  0  0  0  0  0  0  0  0  0
   24.2599    1.3625   52.7102 C   0  0  0  0  0  0  0  0  0  0  0  0
   23.0793    1.7367   51.8428 C   0  0  0  0  0  0  0  0  0  0  0  0
   22.8335    2.9829   51.7414 N   0  0  0  0  0  0  0  0  0  0  0  0
   23.5963    4.0370   52.3899 C   0  0  0  0  0  0  0  0  0  0  0  0
   24.6024    3.7548   53.1315 N   0  0  0  0  0  0  0  0  0  0  0  0
   25.0374    2.4300   53.3705 C   0  0  0  0  0  0  0  0  0  0  0  0
   26.1068    2.1317   54.1589 C   0  0  0  0  0  0  0  0  0  0  0  0
   27.5828    0.1817   55.1427 N   0  0  0  0  0  0  0  0  0  0  0  0
   27.3076   -0.0112   56.2659 O   0  0  0  0  0  0  0  0  0  0  0  0
   22.2565    0.7007   51.1502 N   0  0  0  0  0  0  0  0  0  0  0  0
   22.5575    0.2844   50.2490 H   0  0  0  0  0  0  0  0  0  0  0  0
   21.0102    0.2630   51.7440 C   0  0  0  0  0  0  0  0  0  0  0  0
   20.9730   -0.2380   52.9835 C   0  0  0  0  0  0  0  0  0  0  0  0
   19.6908   -0.6739   53.5583 C   0  0  0  0  0  0  0  0  0  0  0  0
   18.5699   -0.5701   52.8466 C   0  0  0  0  0  0  0  0  0  0  0  0
   18.6057   -0.0315   51.5122 C   0  0  0  0  0  0  0  0  0  0  0  0
   17.1970    0.1263   50.5493 Cl  0  0  0  0  0  0  0  0  0  0  0  0
   19.7453    0.3584   50.9950 C   0  0  0  0  0  0  0  0  0  0  0  0
 11 12  2  0  0  0
 11  1  1  0  0  0
  1  2  2  0  0  0
  2  3  1  0  0  0
  3  4  2  0  0  0
  4  5  1  0  0  0
  5 13  1  0  0  0
 13 15  1  0  0  0
 15 16  2  0  0  0
 16 17  1  0  0  0
 17 18  2  0  0  0
 18 19  1  0  0  0
 19 20  1  0  0  0
 19 21  2  0  0  0
 15 21  1  0  0  0
  5  6  2  0  0  0
  6  7  1  0  0  0
  7  8  2  0  0  0
  8  9  1  0  0  0
  4  9  1  0  0  0
  9 10  2  0  0  0
  1 10  1  0  0  0
 13 14  1  0  0  0
M  END
> <minimizedAffinity>
-7.23129

$$$$
