CHEMBL174426


 23 26  0  0  0  0  0  0  0  0999 V2000
   16.9532   -0.4657   52.4815 C   0  0  0  0  0  0  0  0  0  0  0  0
   18.1565    0.0112   51.7806 N   0  0  0  0  0  0  0  0  0  0  0  0
   18.0998    0.6381   50.5033 C   0  0  0  0  0  0  0  0  0  0  0  0
   19.2570    0.9828   50.0592 N   0  0  0  0  0  0  0  0  0  0  0  0
   20.1606    0.5249   51.1796 C   0  0  0  0  0  0  0  0  0  0  0  0
   21.4918    0.5829   51.3517 C   0  0  0  0  0  0  0  0  0  0  0  0
   22.0164   -0.0067   52.6554 C   0  0  0  0  0  0  0  0  0  0  0  0
   23.2921   -0.0494   53.0187 C   0  0  0  0  0  0  0  0  0  0  0  0
   23.5541   -0.6515   54.2907 N   0  0  0  0  0  0  0  0  0  0  0  0
   22.6472   -1.1337   55.0667 C   0  0  0  0  0  0  0  0  0  0  0  0
   21.3794   -1.1033   54.7300 N   0  0  0  0  0  0  0  0  0  0  0  0
   21.0465   -0.5899   53.6217 C   0  0  0  0  0  0  0  0  0  0  0  0
   19.7267   -0.5803   53.3157 C   0  0  0  0  0  0  0  0  0  0  0  0
   19.3418   -0.0567   52.1753 C   0  0  0  0  0  0  0  0  0  0  0  0
   24.4433    0.4845   52.1913 N   0  0  0  0  0  0  0  0  0  0  0  0
   24.2555    0.7084   51.1722 H   0  0  0  0  0  0  0  0  0  0  0  0
   25.7577    0.6874   52.7555 C   0  0  0  0  0  0  0  0  0  0  0  0
   26.0959    1.8743   53.2708 C   0  0  0  0  0  0  0  0  0  0  0  0
   27.4327    2.0709   53.8415 C   0  0  0  0  0  0  0  0  0  0  0  0
   28.3126    1.0719   53.8492 C   0  0  0  0  0  0  0  0  0  0  0  0
   27.9604   -0.2167   53.2954 C   0  0  0  0  0  0  0  0  0  0  0  0
   29.1860   -1.6669   53.2869 Br  0  0  0  0  0  0  0  0  0  0  0  0
   26.7619   -0.4029   52.7805 C   0  0  0  0  0  0  0  0  0  0  0  0
  1  2  1  0  0  0
  2  3  1  0  0  0
  3  4  2  0  0  0
  4  5  1  0  0  0
  5  6  2  0  0  0
  6  7  1  0  0  0
  7  8  2  0  0  0
  8 15  1  0  0  0
 15 17  1  0  0  0
 17 18  2  0  0  0
 18 19  1  0  0  0
 19 20  2  0  0  0
 20 21  1  0  0  0
 21 22  1  0  0  0
 21 23  2  0  0  0
 17 23  1  0  0  0
  8  9  1  0  0  0
  9 10  2  0  0  0
 10 11  1  0  0  0
 11 12  2  0  0  0
  7 12  1  0  0  0
 12 13  1  0  0  0
 13 14  2  0  0  0
  2 14  1  0  0  0
  5 14  1  0  0  0
 15 16  1  0  0  0
M  END
> <minimizedAffinity>
-7.74852

$$$$
