CHEMBL555201


 24 26  0  0  0  0  0  0  0  0999 V2000
   22.0955    2.1520   50.5115 C   0  0  0  0  0  0  0  0  0  0  0  0
   22.9287    2.9522   49.8943 C   0  0  0  0  0  0  0  0  0  0  0  0
   24.1998    3.0476   50.1756 C   0  0  0  0  0  0  0  0  0  0  0  0
   24.8298    3.8762   49.4808 N   0  0  0  0  0  0  0  0  0  0  0  0
   26.1099    4.0956   49.6811 C   0  0  0  0  0  0  0  0  0  0  0  0
   26.7174    3.4914   50.6391 N   0  0  0  0  0  0  0  0  0  0  0  0
   26.0640    2.5516   51.5075 C   0  0  0  0  0  0  0  0  0  0  0  0
   24.7667    2.2853   51.2471 C   0  0  0  0  0  0  0  0  0  0  0  0
   23.8689    1.2729   51.9632 C   0  0  0  0  0  0  0  0  0  0  0  0
   22.5492    1.1515   51.6758 C   0  0  0  0  0  0  0  0  0  0  0  0
   20.7668    2.3291   48.6401 C   0  0  0  0  0  0  0  0  0  0  0  0
   20.9659    2.4275   49.9418 O   0  0  0  0  0  0  0  0  0  0  0  0
   26.9810    1.9783   52.5949 N   0  0  0  0  0  0  0  0  0  0  0  0
   27.3300    2.6726   53.2932 H   0  0  0  0  0  0  0  0  0  0  0  0
   27.4447    0.5015   52.8050 C   0  0  0  0  0  0  0  0  0  0  0  0
   28.5774    0.3155   53.5067 C   0  0  0  0  0  0  0  0  0  0  0  0
   29.1444   -1.0469   53.7497 C   0  0  0  0  0  0  0  0  0  0  0  0
   28.5300   -2.1452   53.2862 C   0  0  0  0  0  0  0  0  0  0  0  0
   29.0764   -3.4699   53.4757 O   0  0  0  0  0  0  0  0  0  0  0  0
   27.2546   -2.0048   52.5581 C   0  0  0  0  0  0  0  0  0  0  0  0
   26.7221   -0.7850   52.3210 C   0  0  0  0  0  0  0  0  0  0  0  0
   30.1012   -3.5018   53.4485 H   0  0  0  0  0  0  0  0  0  0  0  0
   21.7713    0.0513   52.5616 O   0  0  0  0  0  0  0  0  0  0  0  0
   20.7647    0.2242   53.6329 C   0  0  0  0  0  0  0  0  0  0  0  0
 11 12  1  0  0  0
 12  1  1  0  0  0
  1  2  2  0  0  0
  2  3  1  0  0  0
  3  4  2  0  0  0
  4  5  1  0  0  0
  5  6  2  0  0  0
  6  7  1  0  0  0
  7 13  1  0  0  0
 13 15  1  0  0  0
 15 16  2  0  0  0
 16 17  1  0  0  0
 17 18  2  0  0  0
 18 19  1  0  0  0
 18 20  1  0  0  0
 20 21  2  0  0  0
 15 21  1  0  0  0
  7  8  2  0  0  0
  3  8  1  0  0  0
  8  9  1  0  0  0
  9 10  2  0  0  0
  1 10  1  0  0  0
 10 23  1  0  0  0
 23 24  1  0  0  0
 13 14  1  0  0  0
 19 22  1  0  0  0
M  END
> <minimizedAffinity>
-7.62511

$$$$
