CHEMBL420624


 22 24  0  0  0  0  0  0  0  0999 V2000
   29.8533    1.1453   53.4988 N   0  0  0  0  0  0  0  0  0  0  0  0
   28.7464    0.7095   53.7414 C   0  0  0  0  0  0  0  0  0  0  0  0
   27.8993    0.4596   52.7415 C   0  0  0  0  0  0  0  0  0  0  0  0
   26.6445   -0.0361   53.0390 C   0  0  0  0  0  0  0  0  0  0  0  0
   26.3407   -0.2403   54.3011 C   0  0  0  0  0  0  0  0  0  0  0  0
   25.1304   -0.7191   54.5988 C   0  0  0  0  0  0  0  0  0  0  0  0
   24.8463   -0.9136   55.8310 N   0  0  0  0  0  0  0  0  0  0  0  0
   25.8608   -0.6027   56.8640 C   0  0  0  0  0  0  0  0  0  0  0  0
   26.9880   -0.1544   56.5552 N   0  0  0  0  0  0  0  0  0  0  0  0
   27.2648    0.0360   55.3408 C   0  0  0  0  0  0  0  0  0  0  0  0
   28.4309    0.4965   55.0665 C   0  0  0  0  0  0  0  0  0  0  0  0
   30.1183    1.3100   52.5865 H   0  0  0  0  0  0  0  0  0  0  0  0
   30.6005    1.3760   54.2360 H   0  0  0  0  0  0  0  0  0  0  0  0
   24.2685   -0.9662   53.4789 N   0  0  0  0  0  0  0  0  0  0  0  0
   24.7004   -1.3856   52.6301 H   0  0  0  0  0  0  0  0  0  0  0  0
   22.8671   -0.6473   53.5278 C   0  0  0  0  0  0  0  0  0  0  0  0
   21.9680   -1.5178   54.0050 C   0  0  0  0  0  0  0  0  0  0  0  0
   20.5388   -1.1524   54.0383 C   0  0  0  0  0  0  0  0  0  0  0  0
   20.1427    0.0400   53.5950 C   0  0  0  0  0  0  0  0  0  0  0  0
   21.1148    0.9817   53.0788 C   0  0  0  0  0  0  0  0  0  0  0  0
   20.6344    2.6939   52.4309 Br  0  0  0  0  0  0  0  0  0  0  0  0
   22.3949    0.6581   53.0475 C   0  0  0  0  0  0  0  0  0  0  0  0
  1  2  1  0  0  0
  2  3  2  0  0  0
  3  4  1  0  0  0
  4  5  2  0  0  0
  5  6  1  0  0  0
  6 14  1  0  0  0
 14 16  1  0  0  0
 16 17  2  0  0  0
 17 18  1  0  0  0
 18 19  2  0  0  0
 19 20  1  0  0  0
 20 21  1  0  0  0
 20 22  2  0  0  0
 16 22  1  0  0  0
  6  7  2  0  0  0
  7  8  1  0  0  0
  8  9  2  0  0  0
  9 10  1  0  0  0
  5 10  1  0  0  0
 10 11  2  0  0  0
  2 11  1  0  0  0
  1 12  1  0  0  0
  1 13  1  0  0  0
 14 15  1  0  0  0
M  END
> <minimizedAffinity>
-7.57119

$$$$
