CHEMBL377277|CHEMBL377277|mol2|1|dock1


 26 28  0  0  0  0  0  0  0  0999 V2000
   19.8980   -0.2413   52.6875 C   0  0  0  0  0  0  0  0  0  0  0  0
   20.7231    0.4214   51.8920 C   0  0  0  0  0  0  0  0  0  0  0  0
   22.1278    0.4680   52.1694 C   0  0  0  0  0  0  0  0  0  0  0  0
   22.5563   -0.1619   53.2459 C   0  0  0  0  0  0  0  0  0  0  0  0
   23.8782   -0.1337   53.5583 C   0  0  0  0  0  0  0  0  0  0  0  0
   24.2600   -0.7453   54.5878 N   0  0  0  0  0  0  0  0  0  0  0  0
   23.3943   -1.4795   55.4671 C   0  0  0  0  0  0  0  0  0  0  0  0
   22.1577   -1.5344   55.2230 N   0  0  0  0  0  0  0  0  0  0  0  0
   21.6742   -0.8885   54.1189 C   0  0  0  0  0  0  0  0  0  0  0  0
   20.3994   -0.9294   53.8533 C   0  0  0  0  0  0  0  0  0  0  0  0
   17.7620   -1.1912   53.0619 C   0  0  0  0  0  0  0  0  0  0  0  0
   18.6013   -0.2380   52.3611 O   0  0  0  0  0  0  0  0  0  0  0  0
   24.8290    0.5848   52.7305 N   0  0  0  0  0  0  0  0  0  0  0  0
   24.4374    1.2045   51.9352 H   0  0  0  0  0  0  0  0  0  0  0  0
   26.3087    0.4723   52.9909 C   0  0  0  0  0  0  0  0  0  0  0  0
   27.0694    1.5386   53.2775 C   0  0  0  0  0  0  0  0  0  0  0  0
   28.5440    1.3775   53.5322 C   0  0  0  0  0  0  0  0  0  0  0  0
   29.1231    0.1723   53.4789 C   0  0  0  0  0  0  0  0  0  0  0  0
   30.4670    0.0282   53.7120 F   0  0  0  0  0  0  0  0  0  0  0  0
   28.2888   -0.9894   53.1663 C   0  0  0  0  0  0  0  0  0  0  0  0
   28.9392   -2.5771   53.0753 Cl  0  0  0  0  0  0  0  0  0  0  0  0
   26.9902   -0.8460   52.9417 C   0  0  0  0  0  0  0  0  0  0  0  0
   23.0941    1.1742   51.3668 O   0  0  0  0  0  0  0  0  0  0  0  0
   22.7153    2.4110   50.8139 C   0  0  0  0  0  0  0  0  0  0  0  0
   23.6463    2.8530   49.6435 C   0  0  0  0  0  0  0  0  0  0  0  0
   22.8541    3.4738   51.9095 C   0  0  0  0  0  0  0  0  0  0  0  0
 11 12  1  0  0  0
 12  1  1  0  0  0
  1  2  2  0  0  0
  2  3  1  0  0  0
  3 23  1  0  0  0
 23 24  1  0  0  0
 24 25  1  0  0  0
 24 26  1  0  0  0
  3  4  2  0  0  0
  4  5  1  0  0  0
  5 13  1  0  0  0
 13 15  1  0  0  0
 15 16  2  0  0  0
 16 17  1  0  0  0
 17 18  2  0  0  0
 18 19  1  0  0  0
 18 20  1  0  0  0
 20 21  1  0  0  0
 20 22  2  0  0  0
 15 22  1  0  0  0
  5  6  2  0  0  0
  6  7  1  0  0  0
  7  8  2  0  0  0
  8  9  1  0  0  0
  4  9  1  0  0  0
  9 10  2  0  0  0
  1 10  1  0  0  0
 13 14  1  0  0  0
M  END
> <minimizedAffinity>
-8.29676

$$$$
