CHEMBL554566


 21 23  0  0  0  0  0  0  0  0999 V2000
   24.0867   -0.1382   53.6678 C   0  0  0  0  0  0  0  0  0  0  0  0
   24.4935   -0.7459   54.7132 N   0  0  0  0  0  0  0  0  0  0  0  0
   23.6163   -1.4924   55.5474 C   0  0  0  0  0  0  0  0  0  0  0  0
   22.3831   -1.6044   55.3016 N   0  0  0  0  0  0  0  0  0  0  0  0
   21.7609   -1.0620   54.2874 C   0  0  0  0  0  0  0  0  0  0  0  0
   20.4504   -1.2726   54.1665 C   0  0  0  0  0  0  0  0  0  0  0  0
   19.7139   -0.7026   53.0844 C   0  0  0  0  0  0  0  0  0  0  0  0
   18.2157   -1.0021   53.0150 C   0  0  0  0  0  0  0  0  0  0  0  0
   20.3777    0.0557   52.2013 C   0  0  0  0  0  0  0  0  0  0  0  0
   19.7138    0.6908   51.0426 C   0  0  0  0  0  0  0  0  0  0  0  0
   21.8243    0.2801   52.3556 C   0  0  0  0  0  0  0  0  0  0  0  0
   22.5170   -0.2664   53.3642 C   0  0  0  0  0  0  0  0  0  0  0  0
   24.7747    1.4340   51.7533 C   0  0  0  0  0  0  0  0  0  0  0  0
   25.1539    0.6089   52.8606 N   0  0  0  0  0  0  0  0  0  0  0  0
   26.6044    0.5097   53.1522 C   0  0  0  0  0  0  0  0  0  0  0  0
   27.2796    1.6279   53.4876 C   0  0  0  0  0  0  0  0  0  0  0  0
   28.6864    1.5887   53.7703 C   0  0  0  0  0  0  0  0  0  0  0  0
   29.3500    0.4494   53.7081 C   0  0  0  0  0  0  0  0  0  0  0  0
   28.6897   -0.7826   53.3602 C   0  0  0  0  0  0  0  0  0  0  0  0
   29.5441   -2.0386   53.3167 C   0  0  0  0  0  0  0  0  0  0  0  0
   27.3798   -0.7852   53.0911 C   0  0  0  0  0  0  0  0  0  0  0  0
 13 14  1  0  0  0
 14 15  1  0  0  0
 15 16  2  0  0  0
 16 17  1  0  0  0
 17 18  2  0  0  0
 18 19  1  0  0  0
 19 20  1  0  0  0
 19 21  2  0  0  0
 15 21  1  0  0  0
 14  1  1  0  0  0
  1  2  2  0  0  0
  2  3  1  0  0  0
  3  4  2  0  0  0
  4  5  1  0  0  0
  5  6  2  0  0  0
  6  7  1  0  0  0
  7  8  1  0  0  0
  7  9  2  0  0  0
  9 10  1  0  0  0
  9 11  1  0  0  0
 11 12  2  0  0  0
  1 12  1  0  0  0
  5 12  1  0  0  0
M  END
> <minimizedAffinity>
-8.80416

$$$$
