CHEMBL539807


 26 28  0  0  0  0  0  0  0  0999 V2000
   20.2617   -0.8176   53.4090 C   0  0  0  0  0  0  0  0  0  0  0  0
   20.9152   -1.3181   54.4543 C   0  0  0  0  0  0  0  0  0  0  0  0
   22.3077   -1.1065   54.5789 C   0  0  0  0  0  0  0  0  0  0  0  0
   22.9658   -1.5876   55.6151 N   0  0  0  0  0  0  0  0  0  0  0  0
   24.2597   -1.3850   55.7101 C   0  0  0  0  0  0  0  0  0  0  0  0
   24.9241   -0.6841   54.7779 N   0  0  0  0  0  0  0  0  0  0  0  0
   24.3266   -0.1383   53.7100 C   0  0  0  0  0  0  0  0  0  0  0  0
   22.9610   -0.3760   53.5978 C   0  0  0  0  0  0  0  0  0  0  0  0
   22.2290    0.1136   52.4859 C   0  0  0  0  0  0  0  0  0  0  0  0
   20.9521   -0.0436   52.3432 C   0  0  0  0  0  0  0  0  0  0  0  0
   17.6868   -1.3351   53.3681 C   0  0  0  0  0  0  0  0  0  0  0  0
   19.0566   -1.0591   53.3892 O   0  0  0  0  0  0  0  0  0  0  0  0
   25.1494    0.7629   52.6948 N   0  0  0  0  0  0  0  0  0  0  0  0
   26.3693    0.1189   52.0236 C   0  0  0  0  0  0  0  0  0  0  0  0
   24.5921    2.0319   52.2059 C   0  0  0  0  0  0  0  0  0  0  0  0
   24.3412    3.0261   53.1592 C   0  0  0  0  0  0  0  0  0  0  0  0
   23.7943    4.2411   52.7477 C   0  0  0  0  0  0  0  0  0  0  0  0
   23.4906    4.4561   51.4140 C   0  0  0  0  0  0  0  0  0  0  0  0
   23.7356    3.4997   50.4539 C   0  0  0  0  0  0  0  0  0  0  0  0
   24.3006    2.2806   50.8425 C   0  0  0  0  0  0  0  0  0  0  0  0
   23.3154    3.8756   49.0168 C   0  0  0  0  0  0  0  0  0  0  0  0
   21.9990    4.2877   49.0132 F   0  0  0  0  0  0  0  0  0  0  0  0
   23.3457    2.7074   48.2985 F   0  0  0  0  0  0  0  0  0  0  0  0
   24.1300    4.8443   48.4725 F   0  0  0  0  0  0  0  0  0  0  0  0
   20.4509    0.6058   51.1177 O   0  0  0  0  0  0  0  0  0  0  0  0
   19.9615    1.2336   49.9357 C   0  0  0  0  0  0  0  0  0  0  0  0
 11 12  1  0  0  0
 12  1  1  0  0  0
  1  2  2  0  0  0
  2  3  1  0  0  0
  3  4  2  0  0  0
  4  5  1  0  0  0
  5  6  2  0  0  0
  6  7  1  0  0  0
  7 13  1  0  0  0
 13 14  1  0  0  0
 13 15  1  0  0  0
 15 16  2  0  0  0
 16 17  1  0  0  0
 17 18  2  0  0  0
 18 19  1  0  0  0
 19 20  2  0  0  0
 15 20  1  0  0  0
 19 21  1  0  0  0
 21 22  1  0  0  0
 21 23  1  0  0  0
 21 24  1  0  0  0
  7  8  2  0  0  0
  3  8  1  0  0  0
  8  9  1  0  0  0
  9 10  2  0  0  0
  1 10  1  0  0  0
 10 25  1  0  0  0
 25 26  1  0  0  0
M  END
> <minimizedAffinity>
-7.62005

$$$$
