CHEMBL2334001|CHEMBL2334001|mol2|1|dock1


 27 29  0  0  0  0  0  0  0  0999 V2000
   26.5821    1.0028   54.0626 C   0  0  0  0  0  0  0  0  0  0  0  0
   26.1475    2.2821   53.9914 C   0  0  0  0  0  0  0  0  0  0  0  0
   24.9267    2.6586   53.2868 C   0  0  0  0  0  0  0  0  0  0  0  0
   24.5145    3.8859   53.2179 N   0  0  0  0  0  0  0  0  0  0  0  0
   23.3436    4.2149   52.5287 C   0  0  0  0  0  0  0  0  0  0  0  0
   22.6517    3.2788   51.9417 N   0  0  0  0  0  0  0  0  0  0  0  0
   23.0820    1.9152   51.9991 C   0  0  0  0  0  0  0  0  0  0  0  0
   24.1920    1.5869   52.6530 C   0  0  0  0  0  0  0  0  0  0  0  0
   24.6947    0.1393   52.7463 C   0  0  0  0  0  0  0  0  0  0  0  0
   25.8296   -0.1550   53.4168 C   0  0  0  0  0  0  0  0  0  0  0  0
   29.0679    1.3228   54.2358 C   0  0  0  0  0  0  0  0  0  0  0  0
   27.7934    0.8274   54.7771 O   0  0  0  0  0  0  0  0  0  0  0  0
   22.2605    0.9064   51.3135 N   0  0  0  0  0  0  0  0  0  0  0  0
   22.5250    0.5846   50.3690 H   0  0  0  0  0  0  0  0  0  0  0  0
   20.9986    0.2943   51.9282 C   0  0  0  0  0  0  0  0  0  0  0  0
   20.9144   -0.3027   53.1489 C   0  0  0  0  0  0  0  0  0  0  0  0
   19.5721   -0.8807   53.6437 C   0  0  0  0  0  0  0  0  0  0  0  0
   18.5059   -0.7886   52.8716 C   0  0  0  0  0  0  0  0  0  0  0  0
   17.3077   -1.2965   53.2958 F   0  0  0  0  0  0  0  0  0  0  0  0
   18.6041   -0.1503   51.5735 C   0  0  0  0  0  0  0  0  0  0  0  0
   17.1855   -0.0470   50.5877 Cl  0  0  0  0  0  0  0  0  0  0  0  0
   19.7527    0.3562   51.1216 C   0  0  0  0  0  0  0  0  0  0  0  0
   26.3915   -1.5520   53.5597 O   0  0  0  0  0  0  0  0  0  0  0  0
   27.0020   -2.2159   52.4824 C   0  0  0  0  0  0  0  0  0  0  0  0
   28.4384   -2.3242   52.9616 C   0  0  0  0  0  0  0  0  0  0  0  0
   28.6446   -3.5610   53.4659 O   0  0  0  0  0  0  0  0  0  0  0  0
   29.5632   -3.6374   53.8516 H   0  0  0  0  0  0  0  0  0  0  0  0
 11 12  1  0  0  0
 12  1  1  0  0  0
  1  2  2  0  0  0
  2  3  1  0  0  0
  3  4  2  0  0  0
  4  5  1  0  0  0
  5  6  2  0  0  0
  6  7  1  0  0  0
  7 13  1  0  0  0
 13 15  1  0  0  0
 15 16  2  0  0  0
 16 17  1  0  0  0
 17 18  2  0  0  0
 18 19  1  0  0  0
 18 20  1  0  0  0
 20 21  1  0  0  0
 20 22  2  0  0  0
 15 22  1  0  0  0
  7  8  2  0  0  0
  3  8  1  0  0  0
  8  9  1  0  0  0
  9 10  2  0  0  0
  1 10  1  0  0  0
 10 23  1  0  0  0
 23 24  1  0  0  0
 24 25  1  0  0  0
 25 26  1  0  0  0
 13 14  1  0  0  0
 26 27  1  0  0  0
M  END
> <minimizedAffinity>
-8.11376

$$$$
