CHEMBL3098322|CHEMBL3098322|mol2|1|dock6


 25 27  0  0  0  0  0  0  0  0999 V2000
   27.8237    0.9480   52.6980 C   0  0  0  0  0  0  0  0  0  0  0  0
   27.2609    2.0705   52.3310 C   0  0  0  0  0  0  0  0  0  0  0  0
   26.0217    2.1801   51.9878 C   0  0  0  0  0  0  0  0  0  0  0  0
   25.6870    3.3469   51.6828 N   0  0  0  0  0  0  0  0  0  0  0  0
   24.4670    3.6435   51.3511 C   0  0  0  0  0  0  0  0  0  0  0  0
   24.0720    5.2802   50.8820 Cl  0  0  0  0  0  0  0  0  0  0  0  0
   23.5537    2.7194   51.3955 N   0  0  0  0  0  0  0  0  0  0  0  0
   23.8461    1.3216   51.7822 C   0  0  0  0  0  0  0  0  0  0  0  0
   25.1380    1.0487   52.0404 C   0  0  0  0  0  0  0  0  0  0  0  0
   25.7466   -0.3129   52.3795 C   0  0  0  0  0  0  0  0  0  0  0  0
   27.0481   -0.4505   52.7253 C   0  0  0  0  0  0  0  0  0  0  0  0
   29.3248    1.9197   54.1322 C   0  0  0  0  0  0  0  0  0  0  0  0
   29.0161    1.3307   52.9894 O   0  0  0  0  0  0  0  0  0  0  0  0
   22.6302    0.9111   51.5144 N   0  0  0  0  0  0  0  0  0  0  0  0
   22.5517    1.7862   50.9505 H   0  0  0  0  0  0  0  0  0  0  0  0
   21.2757    0.3189   52.0675 C   0  0  0  0  0  0  0  0  0  0  0  0
   21.3539   -0.3827   53.2141 C   0  0  0  0  0  0  0  0  0  0  0  0
   20.1467   -0.9782   53.8632 C   0  0  0  0  0  0  0  0  0  0  0  0
   18.9311   -0.8444   53.3154 C   0  0  0  0  0  0  0  0  0  0  0  0
   17.7455   -1.3780   53.9339 O   0  0  0  0  0  0  0  0  0  0  0  0
   18.7913   -0.1296   52.0372 C   0  0  0  0  0  0  0  0  0  0  0  0
   19.8632    0.4187   51.4277 C   0  0  0  0  0  0  0  0  0  0  0  0
   17.9002   -1.7392   54.8810 H   0  0  0  0  0  0  0  0  0  0  0  0
   27.4948   -1.9605   53.0769 O   0  0  0  0  0  0  0  0  0  0  0  0
   28.8440   -2.5469   53.2329 C   0  0  0  0  0  0  0  0  0  0  0  0
 12 13  1  0  0  0
 13  1  1  0  0  0
  1  2  2  0  0  0
  2  3  1  0  0  0
  3  4  2  0  0  0
  4  5  1  0  0  0
  5  6  1  0  0  0
  5  7  2  0  0  0
  7  8  1  0  0  0
  8 14  1  0  0  0
 14 16  1  0  0  0
 16 17  2  0  0  0
 17 18  1  0  0  0
 18 19  2  0  0  0
 19 20  1  0  0  0
 19 21  1  0  0  0
 21 22  2  0  0  0
 16 22  1  0  0  0
  8  9  2  0  0  0
  3  9  1  0  0  0
  9 10  1  0  0  0
 10 11  2  0  0  0
  1 11  1  0  0  0
 11 24  1  0  0  0
 24 25  1  0  0  0
 14 15  1  0  0  0
 20 23  1  0  0  0
M  END
> <minimizedAffinity>
-7.60910

$$$$
