CHEMBL93295|CHEMBL93295|mol2|1|dock2


 26 28  0  0  0  0  0  0  0  0999 V2000
   26.1779    3.0289   51.2251 C   0  0  0  0  0  0  0  0  0  0  0  0
   26.7740    1.8948   51.4405 C   0  0  0  0  0  0  0  0  0  0  0  0
   26.2402    0.9076   52.1163 C   0  0  0  0  0  0  0  0  0  0  0  0
   26.9600   -0.1127   52.2088 N   0  0  0  0  0  0  0  0  0  0  0  0
   26.5391   -1.1977   52.8250 C   0  0  0  0  0  0  0  0  0  0  0  0
   27.3955   -2.3304   52.9598 N   0  0  0  0  0  0  0  0  0  0  0  0
   25.3355   -1.2313   53.2920 N   0  0  0  0  0  0  0  0  0  0  0  0
   24.4050   -0.1118   53.1991 C   0  0  0  0  0  0  0  0  0  0  0  0
   24.8976    1.0157   52.6303 C   0  0  0  0  0  0  0  0  0  0  0  0
   24.1978    2.3467   52.4793 C   0  0  0  0  0  0  0  0  0  0  0  0
   24.7341    3.3813   51.7940 C   0  0  0  0  0  0  0  0  0  0  0  0
   28.3147   -2.3030   52.5876 H   0  0  0  0  0  0  0  0  0  0  0  0
   27.0729   -3.1869   53.4419 H   0  0  0  0  0  0  0  0  0  0  0  0
   26.7600    4.1396   49.3065 C   0  0  0  0  0  0  0  0  0  0  0  0
   27.0369    3.6550   50.5035 O   0  0  0  0  0  0  0  0  0  0  0  0
   23.0224   -0.4401   53.7928 N   0  0  0  0  0  0  0  0  0  0  0  0
   23.0246   -0.8829   54.7290 H   0  0  0  0  0  0  0  0  0  0  0  0
   21.6461   -0.3005   53.1838 C   0  0  0  0  0  0  0  0  0  0  0  0
   20.6596   -0.8854   53.8796 C   0  0  0  0  0  0  0  0  0  0  0  0
   19.2723   -0.8477   53.4193 C   0  0  0  0  0  0  0  0  0  0  0  0
   18.9486   -0.2278   52.2908 C   0  0  0  0  0  0  0  0  0  0  0  0
   19.9698    0.4157   51.4810 C   0  0  0  0  0  0  0  0  0  0  0  0
   19.4697    1.3115   49.8558 Br  0  0  0  0  0  0  0  0  0  0  0  0
   21.2492    0.3854   51.8685 C   0  0  0  0  0  0  0  0  0  0  0  0
   23.7907    4.6857   51.7239 O   0  0  0  0  0  0  0  0  0  0  0  0
   23.6190    5.6873   50.6618 C   0  0  0  0  0  0  0  0  0  0  0  0
 14 15  1  0  0  0
 15  1  1  0  0  0
  1  2  2  0  0  0
  2  3  1  0  0  0
  3  4  2  0  0  0
  4  5  1  0  0  0
  5  6  1  0  0  0
  5  7  2  0  0  0
  7  8  1  0  0  0
  8 16  1  0  0  0
 16 18  1  0  0  0
 18 19  2  0  0  0
 19 20  1  0  0  0
 20 21  2  0  0  0
 21 22  1  0  0  0
 22 23  1  0  0  0
 22 24  2  0  0  0
 18 24  1  0  0  0
  8  9  2  0  0  0
  3  9  1  0  0  0
  9 10  1  0  0  0
 10 11  2  0  0  0
  1 11  1  0  0  0
 11 25  1  0  0  0
 25 26  1  0  0  0
  6 12  1  0  0  0
  6 13  1  0  0  0
 16 17  1  0  0  0
M  END
> <minimizedAffinity>
-7.72128

$$$$
