CHEMBL3218424|CHEMBL3218424|mol2|1|dock5


 24 26  0  0  0  0  0  0  0  0999 V2000
   21.9017    0.3383   52.7385 C   0  0  0  0  0  0  0  0  0  0  0  0
   21.1152    0.3925   51.6700 C   0  0  0  0  0  0  0  0  0  0  0  0
   21.5327    1.1561   50.5102 C   0  0  0  0  0  0  0  0  0  0  0  0
   22.7075    1.7798   50.5110 C   0  0  0  0  0  0  0  0  0  0  0  0
   23.0775    2.5314   49.4130 N   0  0  0  0  0  0  0  0  0  0  0  0
   24.1718    3.1794   49.3937 C   0  0  0  0  0  0  0  0  0  0  0  0
   25.0835    3.1491   50.4744 N   0  0  0  0  0  0  0  0  0  0  0  0
   24.9050    2.4724   51.5409 C   0  0  0  0  0  0  0  0  0  0  0  0
   23.5954    1.7127   51.6620 C   0  0  0  0  0  0  0  0  0  0  0  0
   23.1878    1.0388   52.7437 C   0  0  0  0  0  0  0  0  0  0  0  0
   20.7050    0.1767   54.9819 O   0  0  0  0  0  0  0  0  0  0  0  0
   21.4725   -0.4557   53.9421 B   0  0  0  0  0  0  0  0  0  0  0  0
   21.8196   -1.8462   54.0458 O   0  0  0  0  0  0  0  0  0  0  0  0
   19.7428    0.1282   54.7593 H   0  0  0  0  0  0  0  0  0  0  0  0
   21.0176   -2.3994   53.8750 H   0  0  0  0  0  0  0  0  0  0  0  0
   25.9924    2.5949   52.5141 N   0  0  0  0  0  0  0  0  0  0  0  0
   26.0909    3.4921   52.9280 H   0  0  0  0  0  0  0  0  0  0  0  0
   27.0243    1.6460   52.8692 C   0  0  0  0  0  0  0  0  0  0  0  0
   28.1778    1.9575   53.4697 C   0  0  0  0  0  0  0  0  0  0  0  0
   29.1472    0.9078   53.8004 C   0  0  0  0  0  0  0  0  0  0  0  0
   28.8752   -0.3650   53.5258 C   0  0  0  0  0  0  0  0  0  0  0  0
   27.6098   -0.7161   52.8988 C   0  0  0  0  0  0  0  0  0  0  0  0
   27.2422   -2.3698   52.5591 Cl  0  0  0  0  0  0  0  0  0  0  0  0
   26.7335    0.2352   52.5884 C   0  0  0  0  0  0  0  0  0  0  0  0
 11 12  1  0  0  0
 12 13  1  0  0  0
 12  1  1  0  0  0
  1  2  2  0  0  0
  2  3  1  0  0  0
  3  4  2  0  0  0
  4  5  1  0  0  0
  5  6  2  0  0  0
  6  7  1  0  0  0
  7  8  2  0  0  0
  8 16  1  0  0  0
 16 18  1  0  0  0
 18 19  2  0  0  0
 19 20  1  0  0  0
 20 21  2  0  0  0
 21 22  1  0  0  0
 22 23  1  0  0  0
 22 24  2  0  0  0
 18 24  1  0  0  0
  8  9  1  0  0  0
  4  9  1  0  0  0
  9 10  2  0  0  0
  1 10  1  0  0  0
 11 14  1  0  0  0
 13 15  1  0  0  0
 16 17  1  0  0  0
M  END
> <minimizedAffinity>
-8.03034

$$$$
