CHEMBL333418


 22 24  0  0  0  0  0  0  0  0999 V2000
   26.8558   -2.1980   52.6702 N   0  0  0  0  0  0  0  0  0  0  0  0
   27.6735   -1.1479   53.1249 C   0  0  0  0  0  0  0  0  0  0  0  0
   28.9961   -1.3388   53.2992 C   0  0  0  0  0  0  0  0  0  0  0  0
   29.9107   -0.2228   53.6665 C   0  0  0  0  0  0  0  0  0  0  0  0
   29.4059    1.0032   53.7929 C   0  0  0  0  0  0  0  0  0  0  0  0
   27.9721    1.2410   53.6193 C   0  0  0  0  0  0  0  0  0  0  0  0
   27.4869    2.3842   53.7844 N   0  0  0  0  0  0  0  0  0  0  0  0
   26.0892    2.6390   53.7079 C   0  0  0  0  0  0  0  0  0  0  0  0
   25.3023    1.6419   53.5110 N   0  0  0  0  0  0  0  0  0  0  0  0
   25.7727    0.3458   53.3347 C   0  0  0  0  0  0  0  0  0  0  0  0
   27.0974    0.1505   53.3425 C   0  0  0  0  0  0  0  0  0  0  0  0
   27.2646   -3.0103   52.5003 H   0  0  0  0  0  0  0  0  0  0  0  0
   25.9341   -2.0002   52.2373 H   0  0  0  0  0  0  0  0  0  0  0  0
   24.8728   -0.8247   53.2041 N   0  0  0  0  0  0  0  0  0  0  0  0
   25.3370   -1.7903   53.0818 H   0  0  0  0  0  0  0  0  0  0  0  0
   23.4483   -0.6908   53.4690 C   0  0  0  0  0  0  0  0  0  0  0  0
   22.9196   -0.9777   54.6662 C   0  0  0  0  0  0  0  0  0  0  0  0
   21.4652   -0.7896   54.8877 C   0  0  0  0  0  0  0  0  0  0  0  0
   20.6935   -0.3361   53.9013 C   0  0  0  0  0  0  0  0  0  0  0  0
   21.2532   -0.0298   52.6112 C   0  0  0  0  0  0  0  0  0  0  0  0
   20.1831    0.6245   51.1861 Br  0  0  0  0  0  0  0  0  0  0  0  0
   22.5457   -0.2023   52.4060 C   0  0  0  0  0  0  0  0  0  0  0  0
  1  2  1  0  0  0
  2  3  2  0  0  0
  3  4  1  0  0  0
  4  5  2  0  0  0
  5  6  1  0  0  0
  6  7  2  0  0  0
  7  8  1  0  0  0
  8  9  2  0  0  0
  9 10  1  0  0  0
 10 14  1  0  0  0
 14 16  1  0  0  0
 16 17  2  0  0  0
 17 18  1  0  0  0
 18 19  2  0  0  0
 19 20  1  0  0  0
 20 21  1  0  0  0
 20 22  2  0  0  0
 16 22  1  0  0  0
 10 11  2  0  0  0
  2 11  1  0  0  0
  6 11  1  0  0  0
  1 12  1  0  0  0
  1 13  1  0  0  0
 14 15  1  0  0  0
M  END
> <minimizedAffinity>
-7.86189

$$$$
