CHEMBL554053


 23 25  0  0  0  0  0  0  0  0999 V2000
   24.8498   -0.3837   53.9986 C   0  0  0  0  0  0  0  0  0  0  0  0
   25.0590   -0.9871   55.1103 N   0  0  0  0  0  0  0  0  0  0  0  0
   24.1080   -1.5699   55.9955 C   0  0  0  0  0  0  0  0  0  0  0  0
   22.8897   -1.4922   55.7114 N   0  0  0  0  0  0  0  0  0  0  0  0
   22.4340   -0.8741   54.5217 C   0  0  0  0  0  0  0  0  0  0  0  0
   21.1423   -0.8207   54.2296 C   0  0  0  0  0  0  0  0  0  0  0  0
   20.6948   -0.1738   52.9545 C   0  0  0  0  0  0  0  0  0  0  0  0
   21.5729    0.3262   52.0904 C   0  0  0  0  0  0  0  0  0  0  0  0
   23.0038    0.2286   52.4327 C   0  0  0  0  0  0  0  0  0  0  0  0
   23.4155   -0.3049   53.5836 C   0  0  0  0  0  0  0  0  0  0  0  0
   19.3710   -0.0618   52.6204 O   0  0  0  0  0  0  0  0  0  0  0  0
   18.4724   -1.0500   53.2544 C   0  0  0  0  0  0  0  0  0  0  0  0
   21.0637    0.9765   50.8363 O   0  0  0  0  0  0  0  0  0  0  0  0
   22.1028    1.3680   49.8743 C   0  0  0  0  0  0  0  0  0  0  0  0
   26.0041    0.1297   52.9755 N   0  0  0  0  0  0  0  0  0  0  0  0
   27.3069   -0.5166   53.0998 C   0  0  0  0  0  0  0  0  0  0  0  0
   27.4751   -1.8597   52.7541 C   0  0  0  0  0  0  0  0  0  0  0  0
   28.7037   -2.4830   52.9062 C   0  0  0  0  0  0  0  0  0  0  0  0
   29.7786   -1.7752   53.4164 C   0  0  0  0  0  0  0  0  0  0  0  0
   29.6349   -0.4445   53.7687 C   0  0  0  0  0  0  0  0  0  0  0  0
   28.4046    0.1875   53.6061 C   0  0  0  0  0  0  0  0  0  0  0  0
   25.8785    2.6228   52.0719 C   0  0  0  0  0  0  0  0  0  0  0  0
   25.7820    1.1464   51.6372 C   0  0  0  0  0  0  0  0  0  0  0  0
 22 23  1  0  0  0
 23 15  1  0  0  0
 15 16  1  0  0  0
 16 17  2  0  0  0
 17 18  1  0  0  0
 18 19  2  0  0  0
 19 20  1  0  0  0
 20 21  2  0  0  0
 16 21  1  0  0  0
 15  1  1  0  0  0
  1  2  2  0  0  0
  2  3  1  0  0  0
  3  4  2  0  0  0
  4  5  1  0  0  0
  5  6  2  0  0  0
  6  7  1  0  0  0
  7 11  1  0  0  0
 11 12  1  0  0  0
  7  8  2  0  0  0
  8 13  1  0  0  0
 13 14  1  0  0  0
  8  9  1  0  0  0
  9 10  2  0  0  0
  1 10  1  0  0  0
  5 10  1  0  0  0
M  END
> <minimizedAffinity>
-8.10218

$$$$
