CHEMBL136492


 21 23  0  0  0  0  0  0  0  0999 V2000
   24.8525   -0.3036   54.2417 C   0  0  0  0  0  0  0  0  0  0  0  0
   24.7650   -1.0505   55.2854 N   0  0  0  0  0  0  0  0  0  0  0  0
   23.5010   -1.6004   55.7768 C   0  0  0  0  0  0  0  0  0  0  0  0
   22.4168   -1.3700   55.1480 N   0  0  0  0  0  0  0  0  0  0  0  0
   22.3719   -0.5815   53.8983 C   0  0  0  0  0  0  0  0  0  0  0  0
   21.1806   -0.3799   53.1877 C   0  0  0  0  0  0  0  0  0  0  0  0
   21.1590    0.3590   51.9920 C   0  0  0  0  0  0  0  0  0  0  0  0
   22.3436    0.9100   51.4802 C   0  0  0  0  0  0  0  0  0  0  0  0
   22.3679    1.7249   50.1665 N   0  0  0  0  0  0  0  0  0  0  0  0
   23.5248    0.6923   52.2098 C   0  0  0  0  0  0  0  0  0  0  0  0
   23.5532   -0.0351   53.4123 C   0  0  0  0  0  0  0  0  0  0  0  0
   21.5285    1.8777   49.6315 H   0  0  0  0  0  0  0  0  0  0  0  0
   23.2767    2.1164   49.8150 H   0  0  0  0  0  0  0  0  0  0  0  0
   26.2248    1.7849   53.8429 C   0  0  0  0  0  0  0  0  0  0  0  0
   26.1979    0.3111   53.9420 N   0  0  0  0  0  0  0  0  0  0  0  0
   27.3724   -0.4634   53.6674 C   0  0  0  0  0  0  0  0  0  0  0  0
   27.2443   -1.6850   53.0049 C   0  0  0  0  0  0  0  0  0  0  0  0
   28.3573   -2.4770   52.7638 C   0  0  0  0  0  0  0  0  0  0  0  0
   29.6054   -2.0523   53.1876 C   0  0  0  0  0  0  0  0  0  0  0  0
   29.7544   -0.8418   53.8446 C   0  0  0  0  0  0  0  0  0  0  0  0
   28.6366   -0.0396   54.0854 C   0  0  0  0  0  0  0  0  0  0  0  0
 14 15  1  0  0  0
 15 16  1  0  0  0
 16 17  2  0  0  0
 17 18  1  0  0  0
 18 19  2  0  0  0
 19 20  1  0  0  0
 20 21  2  0  0  0
 16 21  1  0  0  0
 15  1  1  0  0  0
  1  2  2  0  0  0
  2  3  1  0  0  0
  3  4  2  0  0  0
  4  5  1  0  0  0
  5  6  2  0  0  0
  6  7  1  0  0  0
  7  8  2  0  0  0
  8  9  1  0  0  0
  8 10  1  0  0  0
 10 11  2  0  0  0
  1 11  1  0  0  0
  5 11  1  0  0  0
  9 12  1  0  0  0
  9 13  1  0  0  0
M  END
> <minimizedAffinity>
-7.62211

$$$$
