CHEMBL289787


 21 23  0  0  0  0  0  0  0  0999 V2000
   26.2070   -0.0401   55.0414 C   0  0  0  0  0  0  0  0  0  0  0  0
   25.1018   -0.6523   54.5842 C   0  0  0  0  0  0  0  0  0  0  0  0
   24.5978   -0.3547   53.2312 C   0  0  0  0  0  0  0  0  0  0  0  0
   25.1886    0.5093   52.4110 C   0  0  0  0  0  0  0  0  0  0  0  0
   26.3623    1.2104   52.7955 C   0  0  0  0  0  0  0  0  0  0  0  0
   26.9488    2.0812   51.9552 C   0  0  0  0  0  0  0  0  0  0  0  0
   28.1263    2.7505   52.4090 N   0  0  0  0  0  0  0  0  0  0  0  0
   28.6154    2.5287   53.5887 C   0  0  0  0  0  0  0  0  0  0  0  0
   27.9583    1.5785   54.4798 N   0  0  0  0  0  0  0  0  0  0  0  0
   26.9087    0.9563   54.1264 C   0  0  0  0  0  0  0  0  0  0  0  0
   25.7582   -0.7459   57.3690 C   0  0  0  0  0  0  0  0  0  0  0  0
   26.7287   -0.3093   56.3647 O   0  0  0  0  0  0  0  0  0  0  0  0
   26.3789    2.3400   50.5796 N   0  0  0  0  0  0  0  0  0  0  0  0
   26.0793    1.5575   49.9709 H   0  0  0  0  0  0  0  0  0  0  0  0
   26.2413    3.6904   50.0870 C   0  0  0  0  0  0  0  0  0  0  0  0
   27.0863    4.1669   49.1649 C   0  0  0  0  0  0  0  0  0  0  0  0
   26.9342    5.5433   48.6727 C   0  0  0  0  0  0  0  0  0  0  0  0
   25.9583    6.3187   49.1410 C   0  0  0  0  0  0  0  0  0  0  0  0
   25.0417    5.8146   50.1356 C   0  0  0  0  0  0  0  0  0  0  0  0
   23.6358    6.8825   50.8323 Br  0  0  0  0  0  0  0  0  0  0  0  0
   25.1716    4.5823   50.5815 C   0  0  0  0  0  0  0  0  0  0  0  0
 11 12  1  0  0  0
 12  1  1  0  0  0
  1  2  2  0  0  0
  2  3  1  0  0  0
  3  4  2  0  0  0
  4  5  1  0  0  0
  5  6  2  0  0  0
  6 13  1  0  0  0
 13 15  1  0  0  0
 15 16  2  0  0  0
 16 17  1  0  0  0
 17 18  2  0  0  0
 18 19  1  0  0  0
 19 20  1  0  0  0
 19 21  2  0  0  0
 15 21  1  0  0  0
  6  7  1  0  0  0
  7  8  2  0  0  0
  8  9  1  0  0  0
  9 10  2  0  0  0
  1 10  1  0  0  0
  5 10  1  0  0  0
 13 14  1  0  0  0
M  END
> <minimizedAffinity>
-7.44159

$$$$
