CHEMBL92398


 20 22  0  0  0  0  0  0  0  0999 V2000
   20.4005   -0.4496   53.2778 C   0  0  0  0  0  0  0  0  0  0  0  0
   21.2244   -1.0120   54.1552 C   0  0  0  0  0  0  0  0  0  0  0  0
   22.6080   -0.7484   54.1087 C   0  0  0  0  0  0  0  0  0  0  0  0
   23.0733    0.0634   53.1830 C   0  0  0  0  0  0  0  0  0  0  0  0
   24.4215    0.3279   53.1280 C   0  0  0  0  0  0  0  0  0  0  0  0
   24.8386    1.1213   52.2155 N   0  0  0  0  0  0  0  0  0  0  0  0
   23.9213    1.7523   51.2326 C   0  0  0  0  0  0  0  0  0  0  0  0
   22.6880    1.5107   51.2825 N   0  0  0  0  0  0  0  0  0  0  0  0
   22.2003    0.6825   52.2240 C   0  0  0  0  0  0  0  0  0  0  0  0
   20.9155    0.4426   52.2614 C   0  0  0  0  0  0  0  0  0  0  0  0
   18.2754   -0.4721   52.1971 C   0  0  0  0  0  0  0  0  0  0  0  0
   19.0973   -0.7406   53.3756 O   0  0  0  0  0  0  0  0  0  0  0  0
   25.3307   -0.3070   54.1142 N   0  0  0  0  0  0  0  0  0  0  0  0
   24.9218   -0.6869   54.9968 H   0  0  0  0  0  0  0  0  0  0  0  0
   26.7740   -0.4382   53.9324 C   0  0  0  0  0  0  0  0  0  0  0  0
   27.2005   -1.4534   53.1702 C   0  0  0  0  0  0  0  0  0  0  0  0
   28.6202   -1.6643   52.9319 C   0  0  0  0  0  0  0  0  0  0  0  0
   29.5237   -0.8521   53.4670 C   0  0  0  0  0  0  0  0  0  0  0  0
   29.1282    0.2678   54.3035 C   0  0  0  0  0  0  0  0  0  0  0  0
   27.8173    0.4906   54.5438 C   0  0  0  0  0  0  0  0  0  0  0  0
 11 12  1  0  0  0
 12  1  1  0  0  0
  1  2  2  0  0  0
  2  3  1  0  0  0
  3  4  2  0  0  0
  4  5  1  0  0  0
  5 13  1  0  0  0
 13 15  1  0  0  0
 15 16  2  0  0  0
 16 17  1  0  0  0
 17 18  2  0  0  0
 18 19  1  0  0  0
 19 20  2  0  0  0
 15 20  1  0  0  0
  5  6  2  0  0  0
  6  7  1  0  0  0
  7  8  2  0  0  0
  8  9  1  0  0  0
  4  9  1  0  0  0
  9 10  2  0  0  0
  1 10  1  0  0  0
 13 14  1  0  0  0
M  END
> <minimizedAffinity>
-7.18332

$$$$
