CHEMBL447230


 23 25  0  0  0  0  0  0  0  0999 V2000
   27.9003    1.3164   52.9440 C   0  0  0  0  0  0  0  0  0  0  0  0
   27.4133    0.4353   53.7837 C   0  0  0  0  0  0  0  0  0  0  0  0
   26.1359    0.2045   53.9384 C   0  0  0  0  0  0  0  0  0  0  0  0
   25.8681   -0.6912   54.7712 N   0  0  0  0  0  0  0  0  0  0  0  0
   24.6352   -1.0581   54.9865 C   0  0  0  0  0  0  0  0  0  0  0  0
   23.6840   -0.5413   54.2961 N   0  0  0  0  0  0  0  0  0  0  0  0
   23.8907    0.4667   53.2888 C   0  0  0  0  0  0  0  0  0  0  0  0
   25.1616    0.8930   53.1342 C   0  0  0  0  0  0  0  0  0  0  0  0
   25.6597    1.9868   52.2177 C   0  0  0  0  0  0  0  0  0  0  0  0
   26.9710    2.2504   52.0442 C   0  0  0  0  0  0  0  0  0  0  0  0
   29.7368    0.0812   53.5880 C   0  0  0  0  0  0  0  0  0  0  0  0
   29.1799    1.1686   53.0833 O   0  0  0  0  0  0  0  0  0  0  0  0
   22.5756    0.8625   52.6034 N   0  0  0  0  0  0  0  0  0  0  0  0
   21.3990    0.5778   53.4756 C   0  0  0  0  0  0  0  0  0  0  0  0
   22.3340    1.3532   51.1677 C   0  0  0  0  0  0  0  0  0  0  0  0
   21.6566    0.5395   50.3362 C   0  0  0  0  0  0  0  0  0  0  0  0
   21.3910    0.9008   48.9557 C   0  0  0  0  0  0  0  0  0  0  0  0
   21.8109    2.0567   48.4674 C   0  0  0  0  0  0  0  0  0  0  0  0
   22.5527    2.9836   49.2935 C   0  0  0  0  0  0  0  0  0  0  0  0
   23.1353    4.6553   48.5507 Br  0  0  0  0  0  0  0  0  0  0  0  0
   22.8246    2.6727   50.5651 C   0  0  0  0  0  0  0  0  0  0  0  0
   27.2730    3.4229   50.9815 O   0  0  0  0  0  0  0  0  0  0  0  0
   26.5794    3.7818   49.7340 C   0  0  0  0  0  0  0  0  0  0  0  0
 11 12  1  0  0  0
 12  1  1  0  0  0
  1  2  2  0  0  0
  2  3  1  0  0  0
  3  4  2  0  0  0
  4  5  1  0  0  0
  5  6  2  0  0  0
  6  7  1  0  0  0
  7 13  1  0  0  0
 13 14  1  0  0  0
 13 15  1  0  0  0
 15 16  2  0  0  0
 16 17  1  0  0  0
 17 18  2  0  0  0
 18 19  1  0  0  0
 19 20  1  0  0  0
 19 21  2  0  0  0
 15 21  1  0  0  0
  7  8  2  0  0  0
  3  8  1  0  0  0
  8  9  1  0  0  0
  9 10  2  0  0  0
  1 10  1  0  0  0
 10 22  1  0  0  0
 22 23  1  0  0  0
M  END
> <minimizedAffinity>
-7.68873

$$$$
