CHEMBL65250


 24 26  0  0  0  0  0  0  0  0999 V2000
   23.0401    1.7465   52.1312 C   0  0  0  0  0  0  0  0  0  0  0  0
   24.2676    1.3836   52.7973 C   0  0  0  0  0  0  0  0  0  0  0  0
   24.7187    0.0489   52.9261 C   0  0  0  0  0  0  0  0  0  0  0  0
   25.9353   -0.1982   53.5065 C   0  0  0  0  0  0  0  0  0  0  0  0
   26.7573    0.8793   53.9624 C   0  0  0  0  0  0  0  0  0  0  0  0
   26.3146    2.1747   53.8680 C   0  0  0  0  0  0  0  0  0  0  0  0
   25.0504    2.4452   53.2870 C   0  0  0  0  0  0  0  0  0  0  0  0
   24.6227    3.7461   53.2199 N   0  0  0  0  0  0  0  0  0  0  0  0
   23.4466    3.9382   52.6622 C   0  0  0  0  0  0  0  0  0  0  0  0
   22.6442    3.0211   52.0989 N   0  0  0  0  0  0  0  0  0  0  0  0
   22.2956    0.8086   51.5117 N   0  0  0  0  0  0  0  0  0  0  0  0
   22.5700    0.4398   50.5782 H   0  0  0  0  0  0  0  0  0  0  0  0
   18.6999   -0.1225   51.5966 C   0  0  0  0  0  0  0  0  0  0  0  0
   19.9185    0.4090   51.1642 C   0  0  0  0  0  0  0  0  0  0  0  0
   21.0480    0.3452   51.9782 C   0  0  0  0  0  0  0  0  0  0  0  0
   20.9781   -0.2995   53.2147 C   0  0  0  0  0  0  0  0  0  0  0  0
   19.7641   -0.8315   53.6424 C   0  0  0  0  0  0  0  0  0  0  0  0
   18.6182   -0.7414   52.8534 C   0  0  0  0  0  0  0  0  0  0  0  0
   16.7943   -0.0925   49.7631 C   0  0  0  0  0  0  0  0  0  0  0  0
   17.6129   -0.0558   50.6557 C   0  0  0  0  0  0  0  0  0  0  0  0
   26.4571   -1.4410   53.7063 O   0  0  0  0  0  0  0  0  0  0  0  0
   26.9119   -2.1370   52.5490 C   0  0  0  0  0  0  0  0  0  0  0  0
   27.9519    0.5001   54.4895 O   0  0  0  0  0  0  0  0  0  0  0  0
   29.1453    0.9065   53.8210 C   0  0  0  0  0  0  0  0  0  0  0  0
 19 20  3  0  0  0
 20 13  1  0  0  0
 13 14  2  0  0  0
 13 18  1  0  0  0
 14 15  1  0  0  0
 15 11  1  0  0  0
 15 16  2  0  0  0
 11  1  1  0  0  0
 11 12  1  0  0  0
  1  2  2  0  0  0
  1 10  1  0  0  0
  2  7  1  0  0  0
  2  3  1  0  0  0
  3  4  2  0  0  0
  4 21  1  0  0  0
  4  5  1  0  0  0
 21 22  1  0  0  0
  5  6  2  0  0  0
  5 23  1  0  0  0
 23 24  1  0  0  0
  6  7  1  0  0  0
  7  8  2  0  0  0
  8  9  1  0  0  0
  9 10  2  0  0  0
 16 17  1  0  0  0
 17 18  2  0  0  0
M  END
> <minimizedAffinity>
-7.47461

$$$$
