CHEMBL179451


 24 26  0  0  0  0  0  0  0  0999 V2000
   24.2286   -0.3378   53.5293 C   0  0  0  0  0  0  0  0  0  0  0  0
   24.9723   -0.5909   54.6958 C   0  0  0  0  0  0  0  0  0  0  0  0
   26.2092    0.0515   54.9121 C   0  0  0  0  0  0  0  0  0  0  0  0
   26.7373    0.9560   53.9801 C   0  0  0  0  0  0  0  0  0  0  0  0
   28.0371    1.6204   54.1993 N   0  0  0  0  0  0  0  0  0  0  0  0
   28.5260    2.4311   53.3408 C   0  0  0  0  0  0  0  0  0  0  0  0
   27.7915    2.7119   52.1239 N   0  0  0  0  0  0  0  0  0  0  0  0
   26.6436    2.2108   51.8116 C   0  0  0  0  0  0  0  0  0  0  0  0
   26.0109    1.2204   52.8177 C   0  0  0  0  0  0  0  0  0  0  0  0
   24.7769    0.5805   52.6024 C   0  0  0  0  0  0  0  0  0  0  0  0
   22.8490   -1.0354   53.2393 N   0  0  0  0  0  0  0  0  0  0  0  0
   22.6513   -1.3505   52.2635 H   0  0  0  0  0  0  0  0  0  0  0  0
   21.8256   -1.3071   54.2459 C   0  0  0  0  0  0  0  0  0  0  0  0
   20.9117    0.8608   53.0588 Cl  0  0  0  0  0  0  0  0  0  0  0  0
   21.0696   -0.0223   54.5495 C   0  0  0  0  0  0  0  0  0  0  0  0
   26.0111    2.6282   50.4674 N   0  0  0  0  0  0  0  0  0  0  0  0
   25.5626    1.8969   49.8693 H   0  0  0  0  0  0  0  0  0  0  0  0
   26.1187    3.9757   49.9961 C   0  0  0  0  0  0  0  0  0  0  0  0
   27.0674    4.3309   49.0386 C   0  0  0  0  0  0  0  0  0  0  0  0
   27.1643    5.6518   48.6104 C   0  0  0  0  0  0  0  0  0  0  0  0
   26.3179    6.6205   49.1363 C   0  0  0  0  0  0  0  0  0  0  0  0
   25.3750    6.2705   50.0881 C   0  0  0  0  0  0  0  0  0  0  0  0
   24.3019    7.4051   50.7805 Cl  0  0  0  0  0  0  0  0  0  0  0  0
   25.2843    4.9624   50.5076 C   0  0  0  0  0  0  0  0  0  0  0  0
 14 15  1  0  0  0
 15 13  1  0  0  0
 13 11  1  0  0  0
 11  1  1  0  0  0
  1  2  2  0  0  0
  2  3  1  0  0  0
  3  4  2  0  0  0
  4  5  1  0  0  0
  5  6  2  0  0  0
  6  7  1  0  0  0
  7  8  2  0  0  0
  8 16  1  0  0  0
 16 18  1  0  0  0
 18 19  2  0  0  0
 19 20  1  0  0  0
 20 21  2  0  0  0
 21 22  1  0  0  0
 22 23  1  0  0  0
 22 24  2  0  0  0
 18 24  1  0  0  0
  8  9  1  0  0  0
  4  9  1  0  0  0
  9 10  2  0  0  0
  1 10  1  0  0  0
 11 12  1  0  0  0
 16 17  1  0  0  0
M  END
> <minimizedAffinity>
-7.39172

$$$$
