CHEMBL209343|CHEMBL209343|mol2|1|dock1


 22 24  0  0  0  0  0  0  0  0999 V2000
   24.1168   -0.4249   53.6088 C   0  0  0  0  0  0  0  0  0  0  0  0
   24.8131   -0.7032   54.7395 C   0  0  0  0  0  0  0  0  0  0  0  0
   26.1902    0.0113   54.9708 C   0  0  0  0  0  0  0  0  0  0  0  0
   26.6837    0.8886   54.0632 C   0  0  0  0  0  0  0  0  0  0  0  0
   27.9507    1.5575   54.2610 N   0  0  0  0  0  0  0  0  0  0  0  0
   28.4134    2.3862   53.4038 C   0  0  0  0  0  0  0  0  0  0  0  0
   27.6572    2.6872   52.1650 N   0  0  0  0  0  0  0  0  0  0  0  0
   26.5158    2.1909   51.8156 C   0  0  0  0  0  0  0  0  0  0  0  0
   25.9062    1.1762   52.8330 C   0  0  0  0  0  0  0  0  0  0  0  0
   24.7386    0.5679   52.6511 C   0  0  0  0  0  0  0  0  0  0  0  0
   21.7073   -1.5672   54.0860 C   0  0  0  0  0  0  0  0  0  0  0  0
   22.7486   -1.0149   53.1837 N   0  0  0  0  0  0  0  0  0  0  0  0
   22.5531   -1.0239   52.1646 H   0  0  0  0  0  0  0  0  0  0  0  0
   26.0028    2.7505   50.3981 N   0  0  0  0  0  0  0  0  0  0  0  0
   25.4213    2.0766   49.8865 H   0  0  0  0  0  0  0  0  0  0  0  0
   26.2157    4.1001   49.6668 C   0  0  0  0  0  0  0  0  0  0  0  0
   25.1393    4.8989   49.6492 C   0  0  0  0  0  0  0  0  0  0  0  0
   25.1646    6.2091   48.9998 C   0  0  0  0  0  0  0  0  0  0  0  0
   26.2619    6.6540   48.4015 C   0  0  0  0  0  0  0  0  0  0  0  0
   27.4663    5.8395   48.3843 C   0  0  0  0  0  0  0  0  0  0  0  0
   28.9291    6.4247   47.5905 Cl  0  0  0  0  0  0  0  0  0  0  0  0
   27.4590    4.6389   48.9767 C   0  0  0  0  0  0  0  0  0  0  0  0
 11 12  1  0  0  0
 12  1  1  0  0  0
  1  2  2  0  0  0
  2  3  1  0  0  0
  3  4  2  0  0  0
  4  5  1  0  0  0
  5  6  2  0  0  0
  6  7  1  0  0  0
  7  8  2  0  0  0
  8 14  1  0  0  0
 14 16  1  0  0  0
 16 17  2  0  0  0
 17 18  1  0  0  0
 18 19  2  0  0  0
 19 20  1  0  0  0
 20 21  1  0  0  0
 20 22  2  0  0  0
 16 22  1  0  0  0
  8  9  1  0  0  0
  4  9  1  0  0  0
  9 10  2  0  0  0
  1 10  1  0  0  0
 12 13  1  0  0  0
 14 15  1  0  0  0
M  END
> <minimizedAffinity>
-7.53616

$$$$
