CHEMBL543195


 23 25  0  0  0  0  0  0  0  0999 V2000
   27.6439    0.8588   53.3039 C   0  0  0  0  0  0  0  0  0  0  0  0
   27.0473   -0.0044   54.0906 C   0  0  0  0  0  0  0  0  0  0  0  0
   25.7410   -0.1430   54.1688 C   0  0  0  0  0  0  0  0  0  0  0  0
   25.3440   -1.0388   54.9456 N   0  0  0  0  0  0  0  0  0  0  0  0
   24.0598   -1.3104   55.0629 C   0  0  0  0  0  0  0  0  0  0  0  0
   23.2043   -0.6947   54.3236 N   0  0  0  0  0  0  0  0  0  0  0  0
   23.5766    0.3176   53.3793 C   0  0  0  0  0  0  0  0  0  0  0  0
   24.8844    0.6406   53.3347 C   0  0  0  0  0  0  0  0  0  0  0  0
   25.5063    1.7176   52.4885 C   0  0  0  0  0  0  0  0  0  0  0  0
   26.8383    1.8873   52.3831 C   0  0  0  0  0  0  0  0  0  0  0  0
   29.3824   -0.6056   53.6563 C   0  0  0  0  0  0  0  0  0  0  0  0
   28.8969    0.6158   53.5012 O   0  0  0  0  0  0  0  0  0  0  0  0
   22.3835    0.8955   52.5609 N   0  0  0  0  0  0  0  0  0  0  0  0
   21.1101    0.8691   53.3356 C   0  0  0  0  0  0  0  0  0  0  0  0
   22.3590    1.4236   51.0651 C   0  0  0  0  0  0  0  0  0  0  0  0
   21.6281    0.7573   50.1515 C   0  0  0  0  0  0  0  0  0  0  0  0
   21.5380    1.2213   48.7310 C   0  0  0  0  0  0  0  0  0  0  0  0
   22.1874    2.3134   48.3222 C   0  0  0  0  0  0  0  0  0  0  0  0
   22.0522    2.8429   46.6988 Cl  0  0  0  0  0  0  0  0  0  0  0  0
   23.0180    3.0434   49.2480 C   0  0  0  0  0  0  0  0  0  0  0  0
   23.1286    2.6507   50.5254 C   0  0  0  0  0  0  0  0  0  0  0  0
   27.2699    3.0638   51.3566 O   0  0  0  0  0  0  0  0  0  0  0  0
   26.6558    3.4781   50.0855 C   0  0  0  0  0  0  0  0  0  0  0  0
 11 12  1  0  0  0
 12  1  1  0  0  0
  1  2  2  0  0  0
  2  3  1  0  0  0
  3  4  2  0  0  0
  4  5  1  0  0  0
  5  6  2  0  0  0
  6  7  1  0  0  0
  7 13  1  0  0  0
 13 14  1  0  0  0
 13 15  1  0  0  0
 15 16  2  0  0  0
 16 17  1  0  0  0
 17 18  2  0  0  0
 18 19  1  0  0  0
 18 20  1  0  0  0
 20 21  2  0  0  0
 15 21  1  0  0  0
  7  8  2  0  0  0
  3  8  1  0  0  0
  8  9  1  0  0  0
  9 10  2  0  0  0
  1 10  1  0  0  0
 10 22  1  0  0  0
 22 23  1  0  0  0
M  END
> <minimizedAffinity>
-7.68889

$$$$
