CHEMBL1928712|CHEMBL1928712|mol2|1|dock3


 29 32  0  0  0  0  0  0  0  0999 V2000
   24.2945   -0.3313   53.7196 C   0  0  0  0  0  0  0  0  0  0  0  0
   25.0313   -0.7609   54.7840 C   0  0  0  0  0  0  0  0  0  0  0  0
   26.4562   -0.1409   55.0198 C   0  0  0  0  0  0  0  0  0  0  0  0
   26.9459    0.8165   54.1988 C   0  0  0  0  0  0  0  0  0  0  0  0
   28.2488    1.3750   54.4007 N   0  0  0  0  0  0  0  0  0  0  0  0
   28.7344    2.2643   53.6235 C   0  0  0  0  0  0  0  0  0  0  0  0
   27.9370    2.7678   52.4926 N   0  0  0  0  0  0  0  0  0  0  0  0
   26.7459    2.3931   52.1617 C   0  0  0  0  0  0  0  0  0  0  0  0
   26.1274    1.2817   53.0551 C   0  0  0  0  0  0  0  0  0  0  0  0
   24.9313    0.7295   52.8378 C   0  0  0  0  0  0  0  0  0  0  0  0
   22.8516   -0.7985   53.3073 N   0  0  0  0  0  0  0  0  0  0  0  0
   22.8011   -1.7235   52.8717 H   0  0  0  0  0  0  0  0  0  0  0  0
   21.6122   -0.0017   53.4998 C   0  0  0  0  0  0  0  0  0  0  0  0
   19.3780    2.9077   48.5609 Br  0  0  0  0  0  0  0  0  0  0  0  0
   20.0889    1.9972   50.0691 C   0  0  0  0  0  0  0  0  0  0  0  0
   19.5499    2.1854   51.2707 C   0  0  0  0  0  0  0  0  0  0  0  0
   20.0809    1.4987   52.4210 C   0  0  0  0  0  0  0  0  0  0  0  0
   21.1107    0.6748   52.2863 C   0  0  0  0  0  0  0  0  0  0  0  0
   21.7097    0.4635   50.9670 C   0  0  0  0  0  0  0  0  0  0  0  0
   21.2160    1.0994   49.9061 C   0  0  0  0  0  0  0  0  0  0  0  0
   26.1984    3.1835   50.9032 N   0  0  0  0  0  0  0  0  0  0  0  0
   26.9155    3.3469   50.1860 H   0  0  0  0  0  0  0  0  0  0  0  0
   24.8447    3.7646   50.5816 C   0  0  0  0  0  0  0  0  0  0  0  0
   24.0468    3.9462   51.6442 C   0  0  0  0  0  0  0  0  0  0  0  0
   22.7036    4.4999   51.5064 C   0  0  0  0  0  0  0  0  0  0  0  0
   22.2327    4.8455   50.3156 C   0  0  0  0  0  0  0  0  0  0  0  0
   23.0602    4.6618   49.1207 C   0  0  0  0  0  0  0  0  0  0  0  0
   22.4049    5.1743   47.3769 Br  0  0  0  0  0  0  0  0  0  0  0  0
   24.2850    4.1396   49.2357 C   0  0  0  0  0  0  0  0  0  0  0  0
 14 15  1  0  0  0
 15 16  2  0  0  0
 16 17  1  0  0  0
 17 18  2  0  0  0
 18 13  1  0  0  0
 13 11  1  0  0  0
 11  1  1  0  0  0
  1  2  2  0  0  0
  2  3  1  0  0  0
  3  4  2  0  0  0
  4  5  1  0  0  0
  5  6  2  0  0  0
  6  7  1  0  0  0
  7  8  2  0  0  0
  8 21  1  0  0  0
 21 23  1  0  0  0
 23 24  2  0  0  0
 24 25  1  0  0  0
 25 26  2  0  0  0
 26 27  1  0  0  0
 27 28  1  0  0  0
 27 29  2  0  0  0
 23 29  1  0  0  0
  8  9  1  0  0  0
  4  9  1  0  0  0
  9 10  2  0  0  0
  1 10  1  0  0  0
 18 19  1  0  0  0
 19 20  2  0  0  0
 15 20  1  0  0  0
 11 12  1  0  0  0
 21 22  1  0  0  0
M  END
> <minimizedAffinity>
-7.81845

$$$$
