CHEMBL96489


 25 27  0  0  0  0  0  0  0  0999 V2000
   26.7083    1.0394   53.6511 C   0  0  0  0  0  0  0  0  0  0  0  0
   26.1534    2.2435   53.6941 C   0  0  0  0  0  0  0  0  0  0  0  0
   24.9696    2.4671   53.2245 C   0  0  0  0  0  0  0  0  0  0  0  0
   24.5907    3.6675   53.2570 N   0  0  0  0  0  0  0  0  0  0  0  0
   23.4661    3.9615   52.7622 C   0  0  0  0  0  0  0  0  0  0  0  0
   22.7089    3.0960   52.1853 N   0  0  0  0  0  0  0  0  0  0  0  0
   23.0729    1.7371   52.0545 C   0  0  0  0  0  0  0  0  0  0  0  0
   24.2243    1.3685   52.6143 C   0  0  0  0  0  0  0  0  0  0  0  0
   24.8041   -0.0459   52.6545 C   0  0  0  0  0  0  0  0  0  0  0  0
   26.0414   -0.2421   53.1267 C   0  0  0  0  0  0  0  0  0  0  0  0
   26.7964   -1.6814   53.1714 N   0  0  0  0  0  0  0  0  0  0  0  0
   26.3561   -2.6452   52.8127 H   0  0  0  0  0  0  0  0  0  0  0  0
   27.7106   -1.7133   53.5583 H   0  0  0  0  0  0  0  0  0  0  0  0
   28.7298    2.0068   53.6259 C   0  0  0  0  0  0  0  0  0  0  0  0
   27.8839    1.0138   54.0340 N   0  0  0  0  0  0  0  0  0  0  0  0
   28.4223    0.2034   55.2284 C   0  0  0  0  0  0  0  0  0  0  0  0
   22.0194    0.9506   51.2741 N   0  0  0  0  0  0  0  0  0  0  0  0
   22.2555    0.7302   50.2858 H   0  0  0  0  0  0  0  0  0  0  0  0
   20.8001    0.3399   51.8076 C   0  0  0  0  0  0  0  0  0  0  0  0
   20.8849   -0.2395   53.0136 C   0  0  0  0  0  0  0  0  0  0  0  0
   19.7135   -0.8628   53.6316 C   0  0  0  0  0  0  0  0  0  0  0  0
   18.5437   -0.8650   53.0007 C   0  0  0  0  0  0  0  0  0  0  0  0
   18.4112   -0.2326   51.6942 C   0  0  0  0  0  0  0  0  0  0  0  0
   16.7297   -0.2548   50.7751 Br  0  0  0  0  0  0  0  0  0  0  0  0
   19.4616    0.3542   51.1331 C   0  0  0  0  0  0  0  0  0  0  0  0
 14 15  1  0  0  0
 15 16  1  0  0  0
 15  1  1  0  0  0
  1  2  2  0  0  0
  2  3  1  0  0  0
  3  4  2  0  0  0
  4  5  1  0  0  0
  5  6  2  0  0  0
  6  7  1  0  0  0
  7 17  1  0  0  0
 17 19  1  0  0  0
 19 20  2  0  0  0
 20 21  1  0  0  0
 21 22  2  0  0  0
 22 23  1  0  0  0
 23 24  1  0  0  0
 23 25  2  0  0  0
 19 25  1  0  0  0
  7  8  2  0  0  0
  3  8  1  0  0  0
  8  9  1  0  0  0
  9 10  2  0  0  0
  1 10  1  0  0  0
 10 11  1  0  0  0
 17 18  1  0  0  0
 11 12  1  0  0  0
 11 13  1  0  0  0
M  END
> <minimizedAffinity>
-7.54595

$$$$
