CHEMBL96065|CHEMBL96065|mol2|1|dock1


 23 25  0  0  0  0  0  0  0  0999 V2000
   27.6501    1.2139   53.4108 C   0  0  0  0  0  0  0  0  0  0  0  0
   27.0739    0.3124   54.1675 C   0  0  0  0  0  0  0  0  0  0  0  0
   25.8034    0.0031   54.1010 C   0  0  0  0  0  0  0  0  0  0  0  0
   25.4347   -0.8697   54.9180 N   0  0  0  0  0  0  0  0  0  0  0  0
   24.1820   -1.2411   54.9870 C   0  0  0  0  0  0  0  0  0  0  0  0
   23.3032   -0.6662   54.2482 N   0  0  0  0  0  0  0  0  0  0  0  0
   23.6203    0.3726   53.3072 C   0  0  0  0  0  0  0  0  0  0  0  0
   24.9295    0.6930   53.1931 C   0  0  0  0  0  0  0  0  0  0  0  0
   25.5576    1.6842   52.2329 C   0  0  0  0  0  0  0  0  0  0  0  0
   26.8670    2.0159   52.2769 C   0  0  0  0  0  0  0  0  0  0  0  0
   29.4357    1.9592   54.3499 C   0  0  0  0  0  0  0  0  0  0  0  0
   28.9308    2.1781   53.2219 O   0  0  0  0  0  0  0  0  0  0  0  0
   22.3679    0.9023   52.6016 N   0  0  0  0  0  0  0  0  0  0  0  0
   21.5434    1.0042   53.2158 H   0  0  0  0  0  0  0  0  0  0  0  0
   22.1900    1.3966   51.2091 C   0  0  0  0  0  0  0  0  0  0  0  0
   21.5295    0.5675   50.3865 C   0  0  0  0  0  0  0  0  0  0  0  0
   21.2691    0.9285   48.9941 C   0  0  0  0  0  0  0  0  0  0  0  0
   21.6823    2.0926   48.5089 C   0  0  0  0  0  0  0  0  0  0  0  0
   22.3907    3.0356   49.3574 C   0  0  0  0  0  0  0  0  0  0  0  0
   23.0298    4.8455   48.5727 I   0  0  0  0  0  0  0  0  0  0  0  0
   22.6300    2.7375   50.6357 C   0  0  0  0  0  0  0  0  0  0  0  0
   27.2990    3.1255   51.1934 O   0  0  0  0  0  0  0  0  0  0  0  0
   26.5909    3.6342   50.0115 C   0  0  0  0  0  0  0  0  0  0  0  0
 11 12  1  0  0  0
 12  1  1  0  0  0
  1  2  2  0  0  0
  2  3  1  0  0  0
  3  4  2  0  0  0
  4  5  1  0  0  0
  5  6  2  0  0  0
  6  7  1  0  0  0
  7 13  1  0  0  0
 13 15  1  0  0  0
 15 16  2  0  0  0
 16 17  1  0  0  0
 17 18  2  0  0  0
 18 19  1  0  0  0
 19 20  1  0  0  0
 19 21  2  0  0  0
 15 21  1  0  0  0
  7  8  2  0  0  0
  3  8  1  0  0  0
  8  9  1  0  0  0
  9 10  2  0  0  0
  1 10  1  0  0  0
 10 22  1  0  0  0
 22 23  1  0  0  0
 13 14  1  0  0  0
M  END
> <minimizedAffinity>
-7.33341

$$$$
