CHEMBL327307


 24 26  0  0  0  0  0  0  0  0999 V2000
   25.3518   -0.4967   54.8625 C   0  0  0  0  0  0  0  0  0  0  0  0
   26.4994    0.1270   54.9770 C   0  0  0  0  0  0  0  0  0  0  0  0
   26.9763    0.9556   54.0823 C   0  0  0  0  0  0  0  0  0  0  0  0
   28.0844    1.4628   54.3698 N   0  0  0  0  0  0  0  0  0  0  0  0
   28.6531    2.3362   53.5697 C   0  0  0  0  0  0  0  0  0  0  0  0
   28.0457    2.7196   52.5042 N   0  0  0  0  0  0  0  0  0  0  0  0
   26.7572    2.2222   52.1154 C   0  0  0  0  0  0  0  0  0  0  0  0
   26.2164    1.2724   52.9074 C   0  0  0  0  0  0  0  0  0  0  0  0
   24.9136    0.5237   52.6785 C   0  0  0  0  0  0  0  0  0  0  0  0
   24.4063   -0.3453   53.5836 C   0  0  0  0  0  0  0  0  0  0  0  0
   25.7220   -0.7001   57.1237 C   0  0  0  0  0  0  0  0  0  0  0  0
   25.2761   -1.1617   55.9676 O   0  0  0  0  0  0  0  0  0  0  0  0
   26.2228    2.8723   50.8292 N   0  0  0  0  0  0  0  0  0  0  0  0
   26.9330    3.0912   50.1165 H   0  0  0  0  0  0  0  0  0  0  0  0
   24.8038    3.3602   50.5170 C   0  0  0  0  0  0  0  0  0  0  0  0
   24.1867    4.0553   51.4877 C   0  0  0  0  0  0  0  0  0  0  0  0
   22.8089    4.5654   51.3193 C   0  0  0  0  0  0  0  0  0  0  0  0
   22.1315    4.3476   50.1949 C   0  0  0  0  0  0  0  0  0  0  0  0
   20.3668    5.0182   50.0052 Br  0  0  0  0  0  0  0  0  0  0  0  0
   22.7436    3.5873   49.1094 C   0  0  0  0  0  0  0  0  0  0  0  0
   21.7567    3.2885   47.4882 Br  0  0  0  0  0  0  0  0  0  0  0  0
   23.9873    3.1045   49.2376 C   0  0  0  0  0  0  0  0  0  0  0  0
   22.9964   -0.9966   53.1559 O   0  0  0  0  0  0  0  0  0  0  0  0
   21.8529   -1.4237   53.9715 C   0  0  0  0  0  0  0  0  0  0  0  0
 11 12  1  0  0  0
 12  1  1  0  0  0
  1  2  2  0  0  0
  2  3  1  0  0  0
  3  4  2  0  0  0
  4  5  1  0  0  0
  5  6  2  0  0  0
  6  7  1  0  0  0
  7 13  1  0  0  0
 13 15  1  0  0  0
 15 16  2  0  0  0
 16 17  1  0  0  0
 17 18  2  0  0  0
 18 19  1  0  0  0
 18 20  1  0  0  0
 20 21  1  0  0  0
 20 22  2  0  0  0
 15 22  1  0  0  0
  7  8  2  0  0  0
  3  8  1  0  0  0
  8  9  1  0  0  0
  9 10  2  0  0  0
  1 10  1  0  0  0
 10 23  1  0  0  0
 23 24  1  0  0  0
 13 14  1  0  0  0
M  END
> <minimizedAffinity>
-7.29317

$$$$
