CHEMBL553908|CHEMBL553908|mol2|1|dock1


 23 25  0  0  0  0  0  0  0  0999 V2000
   27.6914    0.8790   53.3310 C   0  0  0  0  0  0  0  0  0  0  0  0
   27.1077    0.0224   54.1314 C   0  0  0  0  0  0  0  0  0  0  0  0
   25.8114   -0.1307   54.2174 C   0  0  0  0  0  0  0  0  0  0  0  0
   25.4453   -1.0156   55.0217 N   0  0  0  0  0  0  0  0  0  0  0  0
   24.1818   -1.3074   55.1700 C   0  0  0  0  0  0  0  0  0  0  0  0
   23.3020   -0.7239   54.4390 N   0  0  0  0  0  0  0  0  0  0  0  0
   23.6247    0.2798   53.4579 C   0  0  0  0  0  0  0  0  0  0  0  0
   24.9272    0.6264   53.3747 C   0  0  0  0  0  0  0  0  0  0  0  0
   25.5380    1.6945   52.5008 C   0  0  0  0  0  0  0  0  0  0  0  0
   26.8713    1.8776   52.3965 C   0  0  0  0  0  0  0  0  0  0  0  0
   29.4569   -0.5570   53.6921 C   0  0  0  0  0  0  0  0  0  0  0  0
   28.9502    0.6536   53.5359 O   0  0  0  0  0  0  0  0  0  0  0  0
   22.3783    0.7668   52.7065 N   0  0  0  0  0  0  0  0  0  0  0  0
   21.1383    0.5799   53.5243 C   0  0  0  0  0  0  0  0  0  0  0  0
   22.2480    1.2689   51.2355 C   0  0  0  0  0  0  0  0  0  0  0  0
   21.5076    0.5269   50.3933 C   0  0  0  0  0  0  0  0  0  0  0  0
   21.3271    0.8906   48.9968 C   0  0  0  0  0  0  0  0  0  0  0  0
   21.8905    1.9801   48.4976 C   0  0  0  0  0  0  0  0  0  0  0  0
   22.7119    2.8376   49.3229 C   0  0  0  0  0  0  0  0  0  0  0  0
   23.4292    4.2811   48.6205 Cl  0  0  0  0  0  0  0  0  0  0  0  0
   22.9114    2.5233   50.6140 C   0  0  0  0  0  0  0  0  0  0  0  0
   27.2997    3.0382   51.3634 O   0  0  0  0  0  0  0  0  0  0  0  0
   26.6297    3.5318   50.1484 C   0  0  0  0  0  0  0  0  0  0  0  0
 11 12  1  0  0  0
 12  1  1  0  0  0
  1  2  2  0  0  0
  2  3  1  0  0  0
  3  4  2  0  0  0
  4  5  1  0  0  0
  5  6  2  0  0  0
  6  7  1  0  0  0
  7 13  1  0  0  0
 13 14  1  0  0  0
 13 15  1  0  0  0
 15 16  2  0  0  0
 16 17  1  0  0  0
 17 18  2  0  0  0
 18 19  1  0  0  0
 19 20  1  0  0  0
 19 21  2  0  0  0
 15 21  1  0  0  0
  7  8  2  0  0  0
  3  8  1  0  0  0
  8  9  1  0  0  0
  9 10  2  0  0  0
  1 10  1  0  0  0
 10 22  1  0  0  0
 22 23  1  0  0  0
M  END
> <minimizedAffinity>
-7.73602

$$$$
