CHEMBL543669


 22 24  0  0  0  0  0  0  0  0999 V2000
   28.2388    0.7234   53.9730 C   0  0  0  0  0  0  0  0  0  0  0  0
   28.1298    1.3992   52.8600 C   0  0  0  0  0  0  0  0  0  0  0  0
   27.0013    1.8585   52.3912 C   0  0  0  0  0  0  0  0  0  0  0  0
   27.1020    2.4654   51.3041 N   0  0  0  0  0  0  0  0  0  0  0  0
   26.0508    2.9420   50.6994 C   0  0  0  0  0  0  0  0  0  0  0  0
   24.8847    2.7389   51.1964 N   0  0  0  0  0  0  0  0  0  0  0  0
   24.6588    2.0215   52.4255 C   0  0  0  0  0  0  0  0  0  0  0  0
   25.7637    1.5973   53.0751 C   0  0  0  0  0  0  0  0  0  0  0  0
   25.8300    0.8906   54.4091 C   0  0  0  0  0  0  0  0  0  0  0  0
   26.9904    0.4159   54.9210 C   0  0  0  0  0  0  0  0  0  0  0  0
   29.9955   -0.7285   53.6344 C   0  0  0  0  0  0  0  0  0  0  0  0
   29.5045    0.4362   54.0110 O   0  0  0  0  0  0  0  0  0  0  0  0
   23.1580    1.9035   52.7559 N   0  0  0  0  0  0  0  0  0  0  0  0
   22.4269    3.1294   52.3253 C   0  0  0  0  0  0  0  0  0  0  0  0
   22.3475    0.7370   53.3047 C   0  0  0  0  0  0  0  0  0  0  0  0
   21.0072    0.8114   53.1886 C   0  0  0  0  0  0  0  0  0  0  0  0
   20.1371   -0.2522   53.6354 C   0  0  0  0  0  0  0  0  0  0  0  0
   20.6418   -1.3486   54.1726 C   0  0  0  0  0  0  0  0  0  0  0  0
   22.0697   -1.5104   54.3225 C   0  0  0  0  0  0  0  0  0  0  0  0
   22.9057   -0.5415   53.9216 C   0  0  0  0  0  0  0  0  0  0  0  0
   26.8357   -0.3345   56.3401 O   0  0  0  0  0  0  0  0  0  0  0  0
   25.6183   -0.7075   57.0994 C   0  0  0  0  0  0  0  0  0  0  0  0
 11 12  1  0  0  0
 12  1  1  0  0  0
  1  2  2  0  0  0
  2  3  1  0  0  0
  3  4  2  0  0  0
  4  5  1  0  0  0
  5  6  2  0  0  0
  6  7  1  0  0  0
  7 13  1  0  0  0
 13 14  1  0  0  0
 13 15  1  0  0  0
 15 16  2  0  0  0
 16 17  1  0  0  0
 17 18  2  0  0  0
 18 19  1  0  0  0
 19 20  2  0  0  0
 15 20  1  0  0  0
  7  8  2  0  0  0
  3  8  1  0  0  0
  8  9  1  0  0  0
  9 10  2  0  0  0
  1 10  1  0  0  0
 10 21  1  0  0  0
 21 22  1  0  0  0
M  END
> <minimizedAffinity>
-7.36912

$$$$
