CHEMBL181617|CHEMBL181617|mol2|1|dock4


 24 26  0  0  0  0  0  0  0  0999 V2000
   24.2019   -0.4417   53.5854 C   0  0  0  0  0  0  0  0  0  0  0  0
   24.8897   -0.7535   54.7117 C   0  0  0  0  0  0  0  0  0  0  0  0
   26.2710   -0.0564   54.9708 C   0  0  0  0  0  0  0  0  0  0  0  0
   26.7762    0.8431   54.0916 C   0  0  0  0  0  0  0  0  0  0  0  0
   28.0496    1.4948   54.3163 N   0  0  0  0  0  0  0  0  0  0  0  0
   28.5267    2.3428   53.4874 C   0  0  0  0  0  0  0  0  0  0  0  0
   27.7785    2.6884   52.2556 N   0  0  0  0  0  0  0  0  0  0  0  0
   26.6339    2.2150   51.8846 C   0  0  0  0  0  0  0  0  0  0  0  0
   26.0069    1.1711   52.8645 C   0  0  0  0  0  0  0  0  0  0  0  0
   24.8366    0.5717   52.6556 C   0  0  0  0  0  0  0  0  0  0  0  0
   22.8393   -1.0192   53.1645 N   0  0  0  0  0  0  0  0  0  0  0  0
   22.8335   -1.7281   52.4059 H   0  0  0  0  0  0  0  0  0  0  0  0
   21.5473   -0.6363   53.7599 C   0  0  0  0  0  0  0  0  0  0  0  0
   21.3837    0.1614   51.2610 Cl  0  0  0  0  0  0  0  0  0  0  0  0
   20.8254    0.3879   52.8922 C   0  0  0  0  0  0  0  0  0  0  0  0
   26.1378    2.8307   50.4860 N   0  0  0  0  0  0  0  0  0  0  0  0
   25.6734    2.1367   49.8904 H   0  0  0  0  0  0  0  0  0  0  0  0
   26.2184    4.2270   49.8723 C   0  0  0  0  0  0  0  0  0  0  0  0
   27.2469    4.4205   49.0335 C   0  0  0  0  0  0  0  0  0  0  0  0
   27.4558    5.7069   48.3675 C   0  0  0  0  0  0  0  0  0  0  0  0
   26.6264    6.7209   48.5785 C   0  0  0  0  0  0  0  0  0  0  0  0
   25.5010    6.5593   49.4772 C   0  0  0  0  0  0  0  0  0  0  0  0
   24.2845    8.0181   49.7984 Br  0  0  0  0  0  0  0  0  0  0  0  0
   25.3064    5.3895   50.0874 C   0  0  0  0  0  0  0  0  0  0  0  0
 14 15  1  0  0  0
 15 13  1  0  0  0
 13 11  1  0  0  0
 11  1  1  0  0  0
  1  2  2  0  0  0
  2  3  1  0  0  0
  3  4  2  0  0  0
  4  5  1  0  0  0
  5  6  2  0  0  0
  6  7  1  0  0  0
  7  8  2  0  0  0
  8 16  1  0  0  0
 16 18  1  0  0  0
 18 19  2  0  0  0
 19 20  1  0  0  0
 20 21  2  0  0  0
 21 22  1  0  0  0
 22 23  1  0  0  0
 22 24  2  0  0  0
 18 24  1  0  0  0
  8  9  1  0  0  0
  4  9  1  0  0  0
  9 10  2  0  0  0
  1 10  1  0  0  0
 11 12  1  0  0  0
 16 17  1  0  0  0
M  END
> <minimizedAffinity>
-7.44466

$$$$
