CHEMBL3098319|CHEMBL3098319|mol2|1|dock5


 26 28  0  0  0  0  0  0  0  0999 V2000
   26.7932   -0.5392   53.1550 C   0  0  0  0  0  0  0  0  0  0  0  0
   27.1204    0.3087   52.2140 C   0  0  0  0  0  0  0  0  0  0  0  0
   26.4167    1.3563   51.8983 C   0  0  0  0  0  0  0  0  0  0  0  0
   26.8843    2.0318   50.9584 N   0  0  0  0  0  0  0  0  0  0  0  0
   26.2571    3.0852   50.5001 C   0  0  0  0  0  0  0  0  0  0  0  0
   26.9773    4.0313   49.2244 Cl  0  0  0  0  0  0  0  0  0  0  0  0
   25.0901    3.3991   50.9813 N   0  0  0  0  0  0  0  0  0  0  0  0
   24.4515    2.6389   52.0523 C   0  0  0  0  0  0  0  0  0  0  0  0
   25.1756    1.6158   52.5543 C   0  0  0  0  0  0  0  0  0  0  0  0
   24.7909    0.7280   53.7229 C   0  0  0  0  0  0  0  0  0  0  0  0
   25.4989   -0.3653   54.0783 C   0  0  0  0  0  0  0  0  0  0  0  0
   28.9707   -1.1599   53.4401 C   0  0  0  0  0  0  0  0  0  0  0  0
   27.7258   -1.4101   53.0728 O   0  0  0  0  0  0  0  0  0  0  0  0
   23.0213    3.1315   52.4942 N   0  0  0  0  0  0  0  0  0  0  0  0
   22.9483    3.4371   53.4963 H   0  0  0  0  0  0  0  0  0  0  0  0
   22.0737    2.5430   51.7606 C   0  0  0  0  0  0  0  0  0  0  0  0
   20.8763    3.0105   52.1412 C   0  0  0  0  0  0  0  0  0  0  0  0
   19.6216    2.1503   52.0461 C   0  0  0  0  0  0  0  0  0  0  0  0
   19.6700    0.8855   51.5721 C   0  0  0  0  0  0  0  0  0  0  0  0
   20.9593    0.3745   51.0739 C   0  0  0  0  0  0  0  0  0  0  0  0
   22.0705    1.1205   51.1356 C   0  0  0  0  0  0  0  0  0  0  0  0
   18.4976   -0.0132   51.5451 N   0  0  0  0  0  0  0  0  0  0  0  0
   17.5514   -0.0552   50.4257 C   0  0  0  0  0  0  0  0  0  0  0  0
   18.1828   -0.8244   52.7353 C   0  0  0  0  0  0  0  0  0  0  0  0
   24.8596   -1.2063   55.3208 O   0  0  0  0  0  0  0  0  0  0  0  0
   23.4501   -1.4850   55.6361 C   0  0  0  0  0  0  0  0  0  0  0  0
 12 13  1  0  0  0
 13  1  1  0  0  0
  1  2  2  0  0  0
  2  3  1  0  0  0
  3  4  2  0  0  0
  4  5  1  0  0  0
  5  6  1  0  0  0
  5  7  2  0  0  0
  7  8  1  0  0  0
  8 14  1  0  0  0
 14 16  1  0  0  0
 16 17  2  0  0  0
 17 18  1  0  0  0
 18 19  2  0  0  0
 19 20  1  0  0  0
 20 21  2  0  0  0
 16 21  1  0  0  0
 19 22  1  0  0  0
 22 23  1  0  0  0
 22 24  1  0  0  0
  8  9  2  0  0  0
  3  9  1  0  0  0
  9 10  1  0  0  0
 10 11  2  0  0  0
  1 11  1  0  0  0
 11 25  1  0  0  0
 25 26  1  0  0  0
 14 15  1  0  0  0
M  END
> <minimizedAffinity>
-7.42948

$$$$
