CHEMBL1080815|CHEMBL1080815|mol2|1|dock4


 20 22  0  0  0  0  0  0  0  0999 V2000
   23.8706   -0.2319   53.4201 C   0  0  0  0  0  0  0  0  0  0  0  0
   24.1614   -0.7917   54.5399 N   0  0  0  0  0  0  0  0  0  0  0  0
   23.1086   -1.3706   55.4409 C   0  0  0  0  0  0  0  0  0  0  0  0
   21.8692   -1.3265   55.1216 N   0  0  0  0  0  0  0  0  0  0  0  0
   21.4186   -0.7448   53.9299 C   0  0  0  0  0  0  0  0  0  0  0  0
   20.1092   -0.7197   53.6337 C   0  0  0  0  0  0  0  0  0  0  0  0
   19.6425   -0.1062   52.3785 C   0  0  0  0  0  0  0  0  0  0  0  0
   20.5385    0.4214   51.5451 C   0  0  0  0  0  0  0  0  0  0  0  0
   19.9830    1.1424   50.0687 Cl  0  0  0  0  0  0  0  0  0  0  0  0
   21.9953    0.3928   51.8761 C   0  0  0  0  0  0  0  0  0  0  0  0
   22.4114   -0.1661   53.0180 C   0  0  0  0  0  0  0  0  0  0  0  0
   24.9536    0.3212   52.5738 N   0  0  0  0  0  0  0  0  0  0  0  0
   24.6990    0.7316   51.6381 H   0  0  0  0  0  0  0  0  0  0  0  0
   29.2001   -2.4459   53.1859 Cl  0  0  0  0  0  0  0  0  0  0  0  0
   28.3995   -0.9213   53.2662 C   0  0  0  0  0  0  0  0  0  0  0  0
   29.0828    0.1426   53.6593 C   0  0  0  0  0  0  0  0  0  0  0  0
   28.4628    1.4336   53.7431 C   0  0  0  0  0  0  0  0  0  0  0  0
   27.1588    1.5636   53.4146 C   0  0  0  0  0  0  0  0  0  0  0  0
   26.3663    0.3332   52.9595 C   0  0  0  0  0  0  0  0  0  0  0  0
   27.0079   -0.8333   52.9058 C   0  0  0  0  0  0  0  0  0  0  0  0
 14 15  1  0  0  0
 15 16  2  0  0  0
 16 17  1  0  0  0
 17 18  2  0  0  0
 18 19  1  0  0  0
 19 12  1  0  0  0
 12  1  1  0  0  0
  1  2  2  0  0  0
  2  3  1  0  0  0
  3  4  2  0  0  0
  4  5  1  0  0  0
  5  6  2  0  0  0
  6  7  1  0  0  0
  7  8  2  0  0  0
  8  9  1  0  0  0
  8 10  1  0  0  0
 10 11  2  0  0  0
  1 11  1  0  0  0
  5 11  1  0  0  0
 19 20  2  0  0  0
 15 20  1  0  0  0
 12 13  1  0  0  0
M  END
> <minimizedAffinity>
-7.83162

$$$$
