CHEMBL177053|CHEMBL177053|mol2|1|dock2


 22 25  0  0  0  0  0  0  0  0999 V2000
   23.8294   -0.1790   53.4620 C   0  0  0  0  0  0  0  0  0  0  0  0
   24.2101   -0.7611   54.5390 N   0  0  0  0  0  0  0  0  0  0  0  0
   23.2133   -1.4264   55.4308 C   0  0  0  0  0  0  0  0  0  0  0  0
   22.0055   -1.4362   55.1612 N   0  0  0  0  0  0  0  0  0  0  0  0
   21.5960   -0.8763   54.1149 C   0  0  0  0  0  0  0  0  0  0  0  0
   20.3319   -0.9390   53.9215 C   0  0  0  0  0  0  0  0  0  0  0  0
   19.8400   -0.3691   52.8388 C   0  0  0  0  0  0  0  0  0  0  0  0
   18.5853   -0.4240   52.6345 N   0  0  0  0  0  0  0  0  0  0  0  0
   18.2236    0.1621   51.5551 C   0  0  0  0  0  0  0  0  0  0  0  0
   19.5526    0.8115   50.7691 S   0  0  0  0  0  0  0  0  0  0  0  0
   20.5671    0.2647   51.9366 C   0  0  0  0  0  0  0  0  0  0  0  0
   21.9714    0.3773   52.0784 C   0  0  0  0  0  0  0  0  0  0  0  0
   22.4770   -0.1955   53.1694 C   0  0  0  0  0  0  0  0  0  0  0  0
   24.7814    0.4775   52.5745 N   0  0  0  0  0  0  0  0  0  0  0  0
   24.4605    0.7896   51.6243 H   0  0  0  0  0  0  0  0  0  0  0  0
   29.5271   -1.6984   53.3665 Br  0  0  0  0  0  0  0  0  0  0  0  0
   28.3933   -0.1681   53.3135 C   0  0  0  0  0  0  0  0  0  0  0  0
   28.9017    1.0243   53.5905 C   0  0  0  0  0  0  0  0  0  0  0  0
   28.0821    2.2110   53.5631 C   0  0  0  0  0  0  0  0  0  0  0  0
   26.7724    2.1073   53.2496 C   0  0  0  0  0  0  0  0  0  0  0  0
   26.1792    0.7339   52.9288 C   0  0  0  0  0  0  0  0  0  0  0  0
   26.9938   -0.3243   52.9724 C   0  0  0  0  0  0  0  0  0  0  0  0
 16 17  1  0  0  0
 17 18  2  0  0  0
 18 19  1  0  0  0
 19 20  2  0  0  0
 20 21  1  0  0  0
 21 14  1  0  0  0
 14  1  1  0  0  0
  1  2  2  0  0  0
  2  3  1  0  0  0
  3  4  2  0  0  0
  4  5  1  0  0  0
  5  6  2  0  0  0
  6  7  1  0  0  0
  7  8  1  0  0  0
  8  9  2  0  0  0
  9 10  1  0  0  0
 10 11  1  0  0  0
  7 11  2  0  0  0
 11 12  1  0  0  0
 12 13  2  0  0  0
  1 13  1  0  0  0
  5 13  1  0  0  0
 21 22  2  0  0  0
 17 22  1  0  0  0
 14 15  1  0  0  0
M  END
> <minimizedAffinity>
-8.09348

$$$$
