CHEMBL249509|CHEMBL249509|mol2|1|dock1


 22 24  0  0  0  0  0  0  0  0999 V2000
   25.2072    2.6246   52.0147 C   0  0  0  0  0  0  0  0  0  0  0  0
   25.5677    3.4371   51.0871 N   0  0  0  0  0  0  0  0  0  0  0  0
   24.7538    3.6045   49.8326 C   0  0  0  0  0  0  0  0  0  0  0  0
   23.6726    2.9401   49.6495 N   0  0  0  0  0  0  0  0  0  0  0  0
   23.1762    2.0171   50.5990 C   0  0  0  0  0  0  0  0  0  0  0  0
   22.0390    1.3368   50.3753 C   0  0  0  0  0  0  0  0  0  0  0  0
   21.5293    0.3716   51.3795 C   0  0  0  0  0  0  0  0  0  0  0  0
   22.2141    0.1858   52.5102 C   0  0  0  0  0  0  0  0  0  0  0  0
   23.4855    0.9513   52.7524 C   0  0  0  0  0  0  0  0  0  0  0  0
   23.9354    1.8212   51.8357 C   0  0  0  0  0  0  0  0  0  0  0  0
   26.0646    2.5201   53.2161 N   0  0  0  0  0  0  0  0  0  0  0  0
   25.9123    3.1677   54.0240 H   0  0  0  0  0  0  0  0  0  0  0  0
   30.0899   -1.6065   53.5698 F   0  0  0  0  0  0  0  0  0  0  0  0
   29.1662   -0.5987   53.5004 C   0  0  0  0  0  0  0  0  0  0  0  0
   29.5066    0.6324   53.8346 C   0  0  0  0  0  0  0  0  0  0  0  0
   28.4591    1.7530   53.7516 C   0  0  0  0  0  0  0  0  0  0  0  0
   27.1911    1.4861   53.3383 C   0  0  0  0  0  0  0  0  0  0  0  0
   26.8827    0.0745   52.9784 C   0  0  0  0  0  0  0  0  0  0  0  0
   27.8116   -0.8815   53.0593 C   0  0  0  0  0  0  0  0  0  0  0  0
   27.3988   -2.5054   52.6287 Cl  0  0  0  0  0  0  0  0  0  0  0  0
   21.7156   -0.7566   53.4893 C   0  0  0  0  0  0  0  0  0  0  0  0
   21.3002   -1.5419   54.3051 C   0  0  0  0  0  0  0  0  0  0  0  0
 13 14  1  0  0  0
 14 15  2  0  0  0
 15 16  1  0  0  0
 16 17  2  0  0  0
 17 11  1  0  0  0
 11  1  1  0  0  0
  1  2  2  0  0  0
  2  3  1  0  0  0
  3  4  2  0  0  0
  4  5  1  0  0  0
  5  6  2  0  0  0
  6  7  1  0  0  0
  7  8  2  0  0  0
  8  9  1  0  0  0
  9 10  2  0  0  0
  1 10  1  0  0  0
  5 10  1  0  0  0
  8 21  1  0  0  0
 21 22  3  0  0  0
 17 18  1  0  0  0
 18 19  2  0  0  0
 14 19  1  0  0  0
 19 20  1  0  0  0
 11 12  1  0  0  0
M  END
> <minimizedAffinity>
-8.32010

$$$$
