CHEMBL91980


 22 24  0  0  0  0  0  0  0  0999 V2000
   28.7320   -3.1235   53.0534 N   0  0  0  0  0  0  0  0  0  0  0  0
   28.2407   -2.0154   53.1027 C   0  0  0  0  0  0  0  0  0  0  0  0
   26.9424   -1.8531   52.8426 C   0  0  0  0  0  0  0  0  0  0  0  0
   26.4041   -0.5816   52.9047 C   0  0  0  0  0  0  0  0  0  0  0  0
   27.2003    0.4158   53.2191 C   0  0  0  0  0  0  0  0  0  0  0  0
   26.6874    1.6500   53.2814 C   0  0  0  0  0  0  0  0  0  0  0  0
   27.4694    2.6143   53.5880 N   0  0  0  0  0  0  0  0  0  0  0  0
   28.9041    2.3152   53.8585 C   0  0  0  0  0  0  0  0  0  0  0  0
   29.3522    1.1495   53.7918 N   0  0  0  0  0  0  0  0  0  0  0  0
   28.5766    0.2076   53.4897 C   0  0  0  0  0  0  0  0  0  0  0  0
   29.0782   -0.9722   53.4326 C   0  0  0  0  0  0  0  0  0  0  0  0
   28.1855   -3.8863   52.8266 H   0  0  0  0  0  0  0  0  0  0  0  0
   29.7648   -3.3499   53.2467 H   0  0  0  0  0  0  0  0  0  0  0  0
   25.2886    1.7484   52.9904 N   0  0  0  0  0  0  0  0  0  0  0  0
   24.6322    1.4709   53.7475 H   0  0  0  0  0  0  0  0  0  0  0  0
   24.8016    2.2065   51.7191 C   0  0  0  0  0  0  0  0  0  0  0  0
   25.5167    3.0713   50.9873 C   0  0  0  0  0  0  0  0  0  0  0  0
   25.0060    3.5318   49.6877 C   0  0  0  0  0  0  0  0  0  0  0  0
   23.8348    3.0926   49.2346 C   0  0  0  0  0  0  0  0  0  0  0  0
   23.0510    2.1572   50.0155 C   0  0  0  0  0  0  0  0  0  0  0  0
   21.2341    1.4612   49.3374 I   0  0  0  0  0  0  0  0  0  0  0  0
   23.5020    1.7337   51.1916 C   0  0  0  0  0  0  0  0  0  0  0  0
  1  2  1  0  0  0
  2  3  2  0  0  0
  3  4  1  0  0  0
  4  5  2  0  0  0
  5  6  1  0  0  0
  6 14  1  0  0  0
 14 16  1  0  0  0
 16 17  2  0  0  0
 17 18  1  0  0  0
 18 19  2  0  0  0
 19 20  1  0  0  0
 20 21  1  0  0  0
 20 22  2  0  0  0
 16 22  1  0  0  0
  6  7  2  0  0  0
  7  8  1  0  0  0
  8  9  2  0  0  0
  9 10  1  0  0  0
  5 10  1  0  0  0
 10 11  2  0  0  0
  2 11  1  0  0  0
  1 12  1  0  0  0
  1 13  1  0  0  0
 14 15  1  0  0  0
M  END
> <minimizedAffinity>
-8.27313

$$$$
