CHEMBL2333986|CHEMBL2333986|mol2|1|dock2


 26 28  0  0  0  0  0  0  0  0999 V2000
   20.3135    0.4727   53.2160 C   0  0  0  0  0  0  0  0  0  0  0  0
   20.8901   -0.1406   54.2167 C   0  0  0  0  0  0  0  0  0  0  0  0
   22.1591   -0.4337   54.2738 C   0  0  0  0  0  0  0  0  0  0  0  0
   22.4918   -1.0292   55.3240 N   0  0  0  0  0  0  0  0  0  0  0  0
   23.7231   -1.3704   55.5325 C   0  0  0  0  0  0  0  0  0  0  0  0
   24.6094   -1.0650   54.6866 N   0  0  0  0  0  0  0  0  0  0  0  0
   24.3646   -0.3560   53.4541 C   0  0  0  0  0  0  0  0  0  0  0  0
   23.0627   -0.0463   53.2117 C   0  0  0  0  0  0  0  0  0  0  0  0
   22.4305    0.6359   51.9838 C   0  0  0  0  0  0  0  0  0  0  0  0
   21.1109    0.9221   51.9123 C   0  0  0  0  0  0  0  0  0  0  0  0
   18.6386   -0.9029   53.1508 C   0  0  0  0  0  0  0  0  0  0  0  0
   18.9686    0.3142   52.3913 O   0  0  0  0  0  0  0  0  0  0  0  0
   25.6239   -0.1326   52.7187 N   0  0  0  0  0  0  0  0  0  0  0  0
   25.4545    0.2926   51.7441 H   0  0  0  0  0  0  0  0  0  0  0  0
   27.0466   -0.4794   53.0017 C   0  0  0  0  0  0  0  0  0  0  0  0
   27.5919   -1.7159   52.9528 C   0  0  0  0  0  0  0  0  0  0  0  0
   29.0657   -1.9505   53.2414 C   0  0  0  0  0  0  0  0  0  0  0  0
   29.8258   -0.8917   53.5305 C   0  0  0  0  0  0  0  0  0  0  0  0
   29.2632    0.4687   53.5682 C   0  0  0  0  0  0  0  0  0  0  0  0
   27.9844    0.6955   53.3286 C   0  0  0  0  0  0  0  0  0  0  0  0
   27.5277    2.1933   53.3772 C   0  0  0  0  0  0  0  0  0  0  0  0
   27.3251    2.5754   52.1027 F   0  0  0  0  0  0  0  0  0  0  0  0
   26.3765    2.2571   54.1888 F   0  0  0  0  0  0  0  0  0  0  0  0
   28.5693    2.8852   53.8932 F   0  0  0  0  0  0  0  0  0  0  0  0
   20.6843    1.6324   50.5408 O   0  0  0  0  0  0  0  0  0  0  0  0
   20.2069    3.0102   50.2863 C   0  0  0  0  0  0  0  0  0  0  0  0
 11 12  1  0  0  0
 12  1  1  0  0  0
  1  2  2  0  0  0
  2  3  1  0  0  0
  3  4  2  0  0  0
  4  5  1  0  0  0
  5  6  2  0  0  0
  6  7  1  0  0  0
  7 13  1  0  0  0
 13 15  1  0  0  0
 15 16  2  0  0  0
 16 17  1  0  0  0
 17 18  2  0  0  0
 18 19  1  0  0  0
 19 20  2  0  0  0
 15 20  1  0  0  0
 20 21  1  0  0  0
 21 22  1  0  0  0
 21 23  1  0  0  0
 21 24  1  0  0  0
  7  8  2  0  0  0
  3  8  1  0  0  0
  8  9  1  0  0  0
  9 10  2  0  0  0
  1 10  1  0  0  0
 10 25  1  0  0  0
 25 26  1  0  0  0
 13 14  1  0  0  0
M  END
> <minimizedAffinity>
-8.31624

$$$$
