CHEMBL333082|CHEMBL333082|mol2|1|dock2


 22 24  0  0  0  0  0  0  0  0999 V2000
   26.5399   -0.3919   56.4622 N   0  0  0  0  0  0  0  0  0  0  0  0
   26.0981   -0.0821   55.1083 C   0  0  0  0  0  0  0  0  0  0  0  0
   25.0016   -0.6769   54.6211 C   0  0  0  0  0  0  0  0  0  0  0  0
   24.5416   -0.3713   53.2472 C   0  0  0  0  0  0  0  0  0  0  0  0
   25.1721    0.4837   52.4467 C   0  0  0  0  0  0  0  0  0  0  0  0
   26.3475    1.1801   52.8451 C   0  0  0  0  0  0  0  0  0  0  0  0
   26.9532    2.0423   51.9901 C   0  0  0  0  0  0  0  0  0  0  0  0
   28.1573    2.7427   52.4255 N   0  0  0  0  0  0  0  0  0  0  0  0
   28.6108    2.5139   53.6275 C   0  0  0  0  0  0  0  0  0  0  0  0
   27.9034    1.5370   54.5626 N   0  0  0  0  0  0  0  0  0  0  0  0
   26.8561    0.9215   54.1971 C   0  0  0  0  0  0  0  0  0  0  0  0
   26.0146   -1.0886   57.0959 H   0  0  0  0  0  0  0  0  0  0  0  0
   27.4020    0.0909   56.8132 H   0  0  0  0  0  0  0  0  0  0  0  0
   26.3869    2.2727   50.6061 N   0  0  0  0  0  0  0  0  0  0  0  0
   26.1266    1.4780   49.9955 H   0  0  0  0  0  0  0  0  0  0  0  0
   26.1965    3.6154   50.1044 C   0  0  0  0  0  0  0  0  0  0  0  0
   27.0387    4.1278   49.1989 C   0  0  0  0  0  0  0  0  0  0  0  0
   26.8335    5.4942   48.6973 C   0  0  0  0  0  0  0  0  0  0  0  0
   25.8122    6.2247   49.1405 C   0  0  0  0  0  0  0  0  0  0  0  0
   24.8998    5.6822   50.1154 C   0  0  0  0  0  0  0  0  0  0  0  0
   23.4297    6.6819   50.7786 Br  0  0  0  0  0  0  0  0  0  0  0  0
   25.0770    4.4596   50.5693 C   0  0  0  0  0  0  0  0  0  0  0  0
  1  2  1  0  0  0
  2  3  2  0  0  0
  3  4  1  0  0  0
  4  5  2  0  0  0
  5  6  1  0  0  0
  6  7  2  0  0  0
  7 14  1  0  0  0
 14 16  1  0  0  0
 16 17  2  0  0  0
 17 18  1  0  0  0
 18 19  2  0  0  0
 19 20  1  0  0  0
 20 21  1  0  0  0
 20 22  2  0  0  0
 16 22  1  0  0  0
  7  8  1  0  0  0
  8  9  2  0  0  0
  9 10  1  0  0  0
 10 11  2  0  0  0
  2 11  1  0  0  0
  6 11  1  0  0  0
  1 12  1  0  0  0
  1 13  1  0  0  0
 14 15  1  0  0  0
M  END
> <minimizedAffinity>
-7.65583

$$$$
