CHEMBL545538


 23 25  0  0  0  0  0  0  0  0999 V2000
   22.6348    3.4838   51.1849 C   0  0  0  0  0  0  0  0  0  0  0  0
   21.6198    2.7428   51.5562 C   0  0  0  0  0  0  0  0  0  0  0  0
   21.7343    1.6505   52.2580 C   0  0  0  0  0  0  0  0  0  0  0  0
   20.6455    1.0917   52.5247 N   0  0  0  0  0  0  0  0  0  0  0  0
   20.6083    0.0146   53.2565 C   0  0  0  0  0  0  0  0  0  0  0  0
   21.6907   -0.4532   53.7620 N   0  0  0  0  0  0  0  0  0  0  0  0
   22.9862    0.1359   53.5453 C   0  0  0  0  0  0  0  0  0  0  0  0
   23.0194    1.2055   52.7258 C   0  0  0  0  0  0  0  0  0  0  0  0
   24.2406    1.9726   52.2585 C   0  0  0  0  0  0  0  0  0  0  0  0
   24.1487    3.0990   51.5170 C   0  0  0  0  0  0  0  0  0  0  0  0
   21.4126    5.4311   51.2076 C   0  0  0  0  0  0  0  0  0  0  0  0
   22.0592    4.4723   50.5742 O   0  0  0  0  0  0  0  0  0  0  0  0
   24.0820   -0.6126   54.2891 N   0  0  0  0  0  0  0  0  0  0  0  0
   23.5629   -1.3364   55.4752 C   0  0  0  0  0  0  0  0  0  0  0  0
   25.5685   -0.6204   54.0585 C   0  0  0  0  0  0  0  0  0  0  0  0
   26.3276    0.0987   54.9076 C   0  0  0  0  0  0  0  0  0  0  0  0
   27.7569    0.1858   54.7570 C   0  0  0  0  0  0  0  0  0  0  0  0
   28.3612   -0.4379   53.7627 C   0  0  0  0  0  0  0  0  0  0  0  0
   29.8398   -0.3397   53.6354 C   0  0  0  0  0  0  0  0  0  0  0  0
   27.6184   -1.2093   52.8014 C   0  0  0  0  0  0  0  0  0  0  0  0
   26.2904   -1.3173   52.9135 C   0  0  0  0  0  0  0  0  0  0  0  0
   25.5675    3.7756   51.1501 O   0  0  0  0  0  0  0  0  0  0  0  0
   26.5590    3.4311   50.1029 C   0  0  0  0  0  0  0  0  0  0  0  0
 11 12  1  0  0  0
 12  1  1  0  0  0
  1  2  2  0  0  0
  2  3  1  0  0  0
  3  4  2  0  0  0
  4  5  1  0  0  0
  5  6  2  0  0  0
  6  7  1  0  0  0
  7 13  1  0  0  0
 13 14  1  0  0  0
 13 15  1  0  0  0
 15 16  2  0  0  0
 16 17  1  0  0  0
 17 18  2  0  0  0
 18 19  1  0  0  0
 18 20  1  0  0  0
 20 21  2  0  0  0
 15 21  1  0  0  0
  7  8  2  0  0  0
  3  8  1  0  0  0
  8  9  1  0  0  0
  9 10  2  0  0  0
  1 10  1  0  0  0
 10 22  1  0  0  0
 22 23  1  0  0  0
M  END
> <minimizedAffinity>
-7.56282

$$$$
