CHEMBL328295


 20 22  0  0  0  0  0  0  0  0999 V2000
   22.0440   -0.9950   54.1743 C   0  0  0  0  0  0  0  0  0  0  0  0
   20.9717   -0.7511   53.4504 C   0  0  0  0  0  0  0  0  0  0  0  0
   21.1231    0.1337   52.3301 C   0  0  0  0  0  0  0  0  0  0  0  0
   22.3296    0.6742   52.1229 C   0  0  0  0  0  0  0  0  0  0  0  0
   22.5743    1.4993   51.0721 N   0  0  0  0  0  0  0  0  0  0  0  0
   23.7522    1.9716   50.8460 C   0  0  0  0  0  0  0  0  0  0  0  0
   24.8119    1.6125   51.8179 N   0  0  0  0  0  0  0  0  0  0  0  0
   24.6900    0.8887   52.8501 C   0  0  0  0  0  0  0  0  0  0  0  0
   23.4185    0.3432   53.0233 C   0  0  0  0  0  0  0  0  0  0  0  0
   23.2167   -0.4962   53.9670 C   0  0  0  0  0  0  0  0  0  0  0  0
   22.0000   -1.6793   55.1188 N   0  0  0  0  0  0  0  0  0  0  0  0
   22.9540   -1.8370   55.8430 O   0  0  0  0  0  0  0  0  0  0  0  0
   25.9395    0.6489   53.7652 N   0  0  0  0  0  0  0  0  0  0  0  0
   25.9743    1.2312   54.6687 H   0  0  0  0  0  0  0  0  0  0  0  0
   27.0842   -0.3048   53.5556 C   0  0  0  0  0  0  0  0  0  0  0  0
   26.7991   -1.4667   52.9589 C   0  0  0  0  0  0  0  0  0  0  0  0
   27.8399   -2.4542   52.7290 C   0  0  0  0  0  0  0  0  0  0  0  0
   29.1025   -2.2269   53.0694 C   0  0  0  0  0  0  0  0  0  0  0  0
   29.4891   -0.9756   53.7003 C   0  0  0  0  0  0  0  0  0  0  0  0
   28.5553   -0.0434   53.9371 C   0  0  0  0  0  0  0  0  0  0  0  0
 11 12  2  0  0  0
 11  1  1  0  0  0
  1  2  2  0  0  0
  2  3  1  0  0  0
  3  4  2  0  0  0
  4  5  1  0  0  0
  5  6  2  0  0  0
  6  7  1  0  0  0
  7  8  2  0  0  0
  8 13  1  0  0  0
 13 15  1  0  0  0
 15 16  2  0  0  0
 16 17  1  0  0  0
 17 18  2  0  0  0
 18 19  1  0  0  0
 19 20  2  0  0  0
 15 20  1  0  0  0
  8  9  1  0  0  0
  4  9  1  0  0  0
  9 10  2  0  0  0
  1 10  1  0  0  0
 13 14  1  0  0  0
M  END
> <minimizedAffinity>
-7.82290

$$$$
