CHEMBL155100


 23 26  0  0  0  0  0  0  0  0999 V2000
   27.0561    1.8904   52.0194 C   0  0  0  0  0  0  0  0  0  0  0  0
   28.1188    2.5916   52.3942 N   0  0  0  0  0  0  0  0  0  0  0  0
   28.6277    2.5300   53.6321 C   0  0  0  0  0  0  0  0  0  0  0  0
   28.0731    1.7466   54.5488 N   0  0  0  0  0  0  0  0  0  0  0  0
   27.0122    1.0226   54.2388 C   0  0  0  0  0  0  0  0  0  0  0  0
   26.4685    1.0725   52.9581 C   0  0  0  0  0  0  0  0  0  0  0  0
   25.3534    0.3215   52.6056 C   0  0  0  0  0  0  0  0  0  0  0  0
   24.7588   -0.5025   53.5463 C   0  0  0  0  0  0  0  0  0  0  0  0
   25.3115   -0.5401   54.8128 C   0  0  0  0  0  0  0  0  0  0  0  0
   24.9381   -1.2291   55.8607 N   0  0  0  0  0  0  0  0  0  0  0  0
   25.7817   -0.9333   56.8530 C   0  0  0  0  0  0  0  0  0  0  0  0
   26.6993   -0.0491   56.4340 N   0  0  0  0  0  0  0  0  0  0  0  0
   26.4056    0.1953   55.1624 C   0  0  0  0  0  0  0  0  0  0  0  0
   24.1762   -1.8507   55.9088 H   0  0  0  0  0  0  0  0  0  0  0  0
   26.5033    1.9625   50.6604 N   0  0  0  0  0  0  0  0  0  0  0  0
   26.4317    1.1124   50.1100 H   0  0  0  0  0  0  0  0  0  0  0  0
   27.6844    6.5150   48.1512 Br  0  0  0  0  0  0  0  0  0  0  0  0
   26.4650    5.2782   48.9215 C   0  0  0  0  0  0  0  0  0  0  0  0
   25.1035    5.5489   48.9136 C   0  0  0  0  0  0  0  0  0  0  0  0
   24.2132    4.6442   49.4769 C   0  0  0  0  0  0  0  0  0  0  0  0
   24.6870    3.4680   50.0484 C   0  0  0  0  0  0  0  0  0  0  0  0
   26.0527    3.1880   50.0608 C   0  0  0  0  0  0  0  0  0  0  0  0
   26.9368    4.1032   49.4925 C   0  0  0  0  0  0  0  0  0  0  0  0
 17 18  1  0  0  0
 18 19  2  0  0  0
 19 20  1  0  0  0
 20 21  2  0  0  0
 21 22  1  0  0  0
 22 15  1  0  0  0
 15  1  1  0  0  0
  1  2  2  0  0  0
  2  3  1  0  0  0
  3  4  2  0  0  0
  4  5  1  0  0  0
  5  6  2  0  0  0
  1  6  1  0  0  0
  6  7  1  0  0  0
  7  8  2  0  0  0
  8  9  1  0  0  0
  9 10  1  0  0  0
 10 11  1  0  0  0
 11 12  2  0  0  0
 12 13  1  0  0  0
  5 13  1  0  0  0
  9 13  2  0  0  0
 22 23  2  0  0  0
 18 23  1  0  0  0
 15 16  1  0  0  0
 10 14  1  0  0  0
M  END
> <minimizedAffinity>
-8.15135

$$$$
