CHEMBL93966|CHEMBL93966|mol2|1|dock10


 22 24  0  0  0  0  0  0  0  0999 V2000
   28.7092   -3.2174   53.0871 N   0  0  0  0  0  0  0  0  0  0  0  0
   28.3066   -2.0733   53.0928 C   0  0  0  0  0  0  0  0  0  0  0  0
   27.0898   -1.7989   52.6203 C   0  0  0  0  0  0  0  0  0  0  0  0
   26.6481   -0.4908   52.6347 C   0  0  0  0  0  0  0  0  0  0  0  0
   27.4525    0.4306   53.1169 C   0  0  0  0  0  0  0  0  0  0  0  0
   27.0374    1.6992   53.1365 C   0  0  0  0  0  0  0  0  0  0  0  0
   27.8293    2.5867   53.6081 N   0  0  0  0  0  0  0  0  0  0  0  0
   29.1602    2.1752   54.1077 C   0  0  0  0  0  0  0  0  0  0  0  0
   29.5239    0.9775   54.0773 N   0  0  0  0  0  0  0  0  0  0  0  0
   28.7415    0.1052   53.6120 C   0  0  0  0  0  0  0  0  0  0  0  0
   29.1531   -1.1103   53.5991 C   0  0  0  0  0  0  0  0  0  0  0  0
   28.1503   -3.9230   52.7420 H   0  0  0  0  0  0  0  0  0  0  0  0
   29.6715   -3.5350   53.4453 H   0  0  0  0  0  0  0  0  0  0  0  0
   25.7206    1.9338   52.6155 N   0  0  0  0  0  0  0  0  0  0  0  0
   24.9507    1.4583   53.0775 H   0  0  0  0  0  0  0  0  0  0  0  0
   25.4815    2.7886   51.5047 C   0  0  0  0  0  0  0  0  0  0  0  0
   24.3007    3.3985   51.3278 C   0  0  0  0  0  0  0  0  0  0  0  0
   24.0965    4.2776   50.1601 C   0  0  0  0  0  0  0  0  0  0  0  0
   25.0857    4.4604   49.2886 C   0  0  0  0  0  0  0  0  0  0  0  0
   26.3514    3.7937   49.4972 C   0  0  0  0  0  0  0  0  0  0  0  0
   27.3643    3.9200   48.6945 F   0  0  0  0  0  0  0  0  0  0  0  0
   26.5323    3.0108   50.5377 C   0  0  0  0  0  0  0  0  0  0  0  0
  1  2  1  0  0  0
  2  3  2  0  0  0
  3  4  1  0  0  0
  4  5  2  0  0  0
  5  6  1  0  0  0
  6 14  1  0  0  0
 14 16  1  0  0  0
 16 17  2  0  0  0
 17 18  1  0  0  0
 18 19  2  0  0  0
 19 20  1  0  0  0
 20 21  1  0  0  0
 20 22  2  0  0  0
 16 22  1  0  0  0
  6  7  2  0  0  0
  7  8  1  0  0  0
  8  9  2  0  0  0
  9 10  1  0  0  0
  5 10  1  0  0  0
 10 11  2  0  0  0
  2 11  1  0  0  0
  1 12  1  0  0  0
  1 13  1  0  0  0
 14 15  1  0  0  0
M  END
> <minimizedAffinity>
-8.39693

$$$$
