CHEMBL328955


 22 24  0  0  0  0  0  0  0  0999 V2000
   28.8319   -3.2152   53.0922 N   0  0  0  0  0  0  0  0  0  0  0  0
   28.3641   -2.0952   53.0928 C   0  0  0  0  0  0  0  0  0  0  0  0
   27.1114   -1.9015   52.6776 C   0  0  0  0  0  0  0  0  0  0  0  0
   26.5967   -0.6203   52.6856 C   0  0  0  0  0  0  0  0  0  0  0  0
   27.3699    0.3566   53.1046 C   0  0  0  0  0  0  0  0  0  0  0  0
   26.8836    1.5990   53.1169 C   0  0  0  0  0  0  0  0  0  0  0  0
   27.6474    2.5403   53.5274 N   0  0  0  0  0  0  0  0  0  0  0  0
   29.0212    2.2205   53.9667 C   0  0  0  0  0  0  0  0  0  0  0  0
   29.4521    1.0448   53.9447 N   0  0  0  0  0  0  0  0  0  0  0  0
   28.6986    0.1176   53.5400 C   0  0  0  0  0  0  0  0  0  0  0  0
   29.1782   -1.0728   53.5331 C   0  0  0  0  0  0  0  0  0  0  0  0
   28.2987   -3.9602   52.7926 H   0  0  0  0  0  0  0  0  0  0  0  0
   29.8276   -3.4680   53.4075 H   0  0  0  0  0  0  0  0  0  0  0  0
   25.5300    1.7450   52.6589 N   0  0  0  0  0  0  0  0  0  0  0  0
   24.7875    1.2490   53.1978 H   0  0  0  0  0  0  0  0  0  0  0  0
   25.2183    2.5421   51.5064 C   0  0  0  0  0  0  0  0  0  0  0  0
   23.9576    2.7900   51.1298 C   0  0  0  0  0  0  0  0  0  0  0  0
   23.7000    3.6184   49.9331 C   0  0  0  0  0  0  0  0  0  0  0  0
   24.7209    4.1144   49.2349 C   0  0  0  0  0  0  0  0  0  0  0  0
   26.0737    3.8397   49.6517 C   0  0  0  0  0  0  0  0  0  0  0  0
   27.4514    4.4200   48.8376 Cl  0  0  0  0  0  0  0  0  0  0  0  0
   26.3011    3.1039   50.7146 C   0  0  0  0  0  0  0  0  0  0  0  0
  1  2  1  0  0  0
  2  3  2  0  0  0
  3  4  1  0  0  0
  4  5  2  0  0  0
  5  6  1  0  0  0
  6 14  1  0  0  0
 14 16  1  0  0  0
 16 17  2  0  0  0
 17 18  1  0  0  0
 18 19  2  0  0  0
 19 20  1  0  0  0
 20 21  1  0  0  0
 20 22  2  0  0  0
 16 22  1  0  0  0
  6  7  2  0  0  0
  7  8  1  0  0  0
  8  9  2  0  0  0
  9 10  1  0  0  0
  5 10  1  0  0  0
 10 11  2  0  0  0
  2 11  1  0  0  0
  1 12  1  0  0  0
  1 13  1  0  0  0
 14 15  1  0  0  0
M  END
> <minimizedAffinity>
-8.39379

$$$$
