CHEMBL317925


 25 27  0  0  0  0  0  0  0  0999 V2000
   23.3967    0.0991   53.2391 C   0  0  0  0  0  0  0  0  0  0  0  0
   24.6492    0.2955   53.7126 C   0  0  0  0  0  0  0  0  0  0  0  0
   25.5748    1.1017   53.0592 C   0  0  0  0  0  0  0  0  0  0  0  0
   26.7532    1.2616   53.5426 N   0  0  0  0  0  0  0  0  0  0  0  0
   27.6365    2.0534   52.8853 C   0  0  0  0  0  0  0  0  0  0  0  0
   27.2952    2.6437   51.7794 N   0  0  0  0  0  0  0  0  0  0  0  0
   26.0345    2.4936   51.2303 C   0  0  0  0  0  0  0  0  0  0  0  0
   25.1557    1.7282   51.8505 C   0  0  0  0  0  0  0  0  0  0  0  0
   23.7740    1.5332   51.2952 C   0  0  0  0  0  0  0  0  0  0  0  0
   22.8799    0.7312   51.9614 C   0  0  0  0  0  0  0  0  0  0  0  0
   22.9324   -1.1809   55.2051 C   0  0  0  0  0  0  0  0  0  0  0  0
   22.5419   -0.6825   53.8985 O   0  0  0  0  0  0  0  0  0  0  0  0
   25.7005    3.1713   49.9963 N   0  0  0  0  0  0  0  0  0  0  0  0
   24.9626    2.6494   49.3627 H   0  0  0  0  0  0  0  0  0  0  0  0
   26.2317    4.4288   49.5387 C   0  0  0  0  0  0  0  0  0  0  0  0
   27.3547    4.5764   48.8037 C   0  0  0  0  0  0  0  0  0  0  0  0
   27.7989    5.9699   48.3894 C   0  0  0  0  0  0  0  0  0  0  0  0
   27.0690    7.0087   48.7623 C   0  0  0  0  0  0  0  0  0  0  0  0
   25.8689    6.8276   49.5499 C   0  0  0  0  0  0  0  0  0  0  0  0
   24.8529    8.3564   50.0612 Br  0  0  0  0  0  0  0  0  0  0  0  0
   25.4686    5.6223   49.9186 C   0  0  0  0  0  0  0  0  0  0  0  0
   23.5470    2.2504   50.0669 O   0  0  0  0  0  0  0  0  0  0  0  0
   22.5016    3.1237   50.0661 C   0  0  0  0  0  0  0  0  0  0  0  0
   21.4016    0.4703   51.4467 O   0  0  0  0  0  0  0  0  0  0  0  0
   20.2173    1.0730   52.0749 C   0  0  0  0  0  0  0  0  0  0  0  0
 11 12  1  0  0  0
 12  1  1  0  0  0
  1  2  2  0  0  0
  2  3  1  0  0  0
  3  4  2  0  0  0
  4  5  1  0  0  0
  5  6  2  0  0  0
  6  7  1  0  0  0
  7 13  1  0  0  0
 13 15  1  0  0  0
 15 16  2  0  0  0
 16 17  1  0  0  0
 17 18  2  0  0  0
 18 19  1  0  0  0
 19 20  1  0  0  0
 19 21  2  0  0  0
 15 21  1  0  0  0
  7  8  2  0  0  0
  3  8  1  0  0  0
  8  9  1  0  0  0
  9 22  1  0  0  0
 22 23  1  0  0  0
  9 10  2  0  0  0
  1 10  1  0  0  0
 10 24  1  0  0  0
 24 25  1  0  0  0
 13 14  1  0  0  0
M  END
> <minimizedAffinity>
-6.89953

$$$$
