CHEMBL542484|CHEMBL542484|mol2|1|dock3


 22 24  0  0  0  0  0  0  0  0999 V2000
   20.4824   -0.3641   53.1849 C   0  0  0  0  0  0  0  0  0  0  0  0
   21.0414   -0.9310   54.2243 C   0  0  0  0  0  0  0  0  0  0  0  0
   22.3279   -0.9685   54.4330 C   0  0  0  0  0  0  0  0  0  0  0  0
   22.6642   -1.5516   55.4870 N   0  0  0  0  0  0  0  0  0  0  0  0
   23.9179   -1.6450   55.8395 C   0  0  0  0  0  0  0  0  0  0  0  0
   24.8229   -1.0884   55.1192 N   0  0  0  0  0  0  0  0  0  0  0  0
   24.5328   -0.3658   53.9082 C   0  0  0  0  0  0  0  0  0  0  0  0
   23.2388   -0.3333   53.5260 C   0  0  0  0  0  0  0  0  0  0  0  0
   22.6604    0.2853   52.2667 C   0  0  0  0  0  0  0  0  0  0  0  0
   21.3280    0.3270   52.0223 C   0  0  0  0  0  0  0  0  0  0  0  0
   18.3051   -0.4982   52.4600 C   0  0  0  0  0  0  0  0  0  0  0  0
   19.2181   -0.5365   53.4107 O   0  0  0  0  0  0  0  0  0  0  0  0
   25.8035    0.2225   53.2783 N   0  0  0  0  0  0  0  0  0  0  0  0
   25.6099    1.0205   52.6258 H   0  0  0  0  0  0  0  0  0  0  0  0
   27.2397   -0.2022   53.3625 C   0  0  0  0  0  0  0  0  0  0  0  0
   28.0897    0.7908   53.6661 C   0  0  0  0  0  0  0  0  0  0  0  0
   29.5251    0.5637   53.7652 C   0  0  0  0  0  0  0  0  0  0  0  0
   30.0389   -0.6397   53.5471 C   0  0  0  0  0  0  0  0  0  0  0  0
   29.1853   -1.7639   53.1956 C   0  0  0  0  0  0  0  0  0  0  0  0
   27.8525   -1.5908   53.0960 C   0  0  0  0  0  0  0  0  0  0  0  0
   20.9277    1.0537   50.6393 O   0  0  0  0  0  0  0  0  0  0  0  0
   21.4942    0.9089   49.2794 C   0  0  0  0  0  0  0  0  0  0  0  0
 11 12  1  0  0  0
 12  1  1  0  0  0
  1  2  2  0  0  0
  2  3  1  0  0  0
  3  4  2  0  0  0
  4  5  1  0  0  0
  5  6  2  0  0  0
  6  7  1  0  0  0
  7 13  1  0  0  0
 13 15  1  0  0  0
 15 16  2  0  0  0
 16 17  1  0  0  0
 17 18  2  0  0  0
 18 19  1  0  0  0
 19 20  2  0  0  0
 15 20  1  0  0  0
  7  8  2  0  0  0
  3  8  1  0  0  0
  8  9  1  0  0  0
  9 10  2  0  0  0
  1 10  1  0  0  0
 10 21  1  0  0  0
 21 22  1  0  0  0
 13 14  1  0  0  0
M  END
> <minimizedAffinity>
-7.69593

$$$$
