CHEMBL116308


 21 23  0  0  0  0  0  0  0  0999 V2000
   27.7978   -1.2032   53.2288 C   0  0  0  0  0  0  0  0  0  0  0  0
   29.1209   -1.2529   53.2895 C   0  0  0  0  0  0  0  0  0  0  0  0
   29.9804   -0.0722   53.5552 C   0  0  0  0  0  0  0  0  0  0  0  0
   29.4432    1.1372   53.7595 C   0  0  0  0  0  0  0  0  0  0  0  0
   27.9528    1.3036   53.7009 C   0  0  0  0  0  0  0  0  0  0  0  0
   27.4537    2.5229   53.8875 N   0  0  0  0  0  0  0  0  0  0  0  0
   26.1423    2.7832   53.8318 C   0  0  0  0  0  0  0  0  0  0  0  0
   25.3226    1.7484   53.5542 N   0  0  0  0  0  0  0  0  0  0  0  0
   25.7292    0.4824   53.3605 C   0  0  0  0  0  0  0  0  0  0  0  0
   27.1097    0.2133   53.4400 C   0  0  0  0  0  0  0  0  0  0  0  0
   27.1145   -2.5164   52.9623 N   0  0  0  0  0  0  0  0  0  0  0  0
   26.7056   -2.7640   51.8417 O   0  0  0  0  0  0  0  0  0  0  0  0
   24.7588   -0.5958   53.0636 N   0  0  0  0  0  0  0  0  0  0  0  0
   25.1169   -1.4639   52.5787 H   0  0  0  0  0  0  0  0  0  0  0  0
   23.3010   -0.5528   53.2468 C   0  0  0  0  0  0  0  0  0  0  0  0
   22.8802   -1.1055   54.4555 C   0  0  0  0  0  0  0  0  0  0  0  0
   21.5389   -1.1920   54.7830 C   0  0  0  0  0  0  0  0  0  0  0  0
   20.5852   -0.7277   53.8951 C   0  0  0  0  0  0  0  0  0  0  0  0
   20.9677   -0.1692   52.6856 C   0  0  0  0  0  0  0  0  0  0  0  0
   19.5471    0.4380   51.5075 Br  0  0  0  0  0  0  0  0  0  0  0  0
   22.3277   -0.0678   52.3476 C   0  0  0  0  0  0  0  0  0  0  0  0
 11 12  2  0  0  0
 11  1  1  0  0  0
  1  2  2  0  0  0
  2  3  1  0  0  0
  3  4  2  0  0  0
  4  5  1  0  0  0
  5  6  2  0  0  0
  6  7  1  0  0  0
  7  8  2  0  0  0
  8  9  1  0  0  0
  9 13  1  0  0  0
 13 15  1  0  0  0
 15 16  2  0  0  0
 16 17  1  0  0  0
 17 18  2  0  0  0
 18 19  1  0  0  0
 19 20  1  0  0  0
 19 21  2  0  0  0
 15 21  1  0  0  0
  9 10  2  0  0  0
  1 10  1  0  0  0
  5 10  1  0  0  0
 13 14  1  0  0  0
M  END
> <minimizedAffinity>
-7.73817

$$$$
