CHEMBL1277620|CHEMBL1277620|mol2|1|dock2


 24 26  0  0  0  0  0  0  0  0999 V2000
   27.8342    1.1394   53.6326 C   0  0  0  0  0  0  0  0  0  0  0  0
   27.2506    0.2822   54.4498 C   0  0  0  0  0  0  0  0  0  0  0  0
   25.9456   -0.0086   54.3797 C   0  0  0  0  0  0  0  0  0  0  0  0
   25.4989   -0.8627   55.1826 N   0  0  0  0  0  0  0  0  0  0  0  0
   24.2151   -1.2300   55.1268 C   0  0  0  0  0  0  0  0  0  0  0  0
   23.4454   -0.7529   54.2037 N   0  0  0  0  0  0  0  0  0  0  0  0
   23.9004    0.1989   53.2247 C   0  0  0  0  0  0  0  0  0  0  0  0
   25.1574    0.6033   53.3606 C   0  0  0  0  0  0  0  0  0  0  0  0
   25.7303    1.6084   52.5187 C   0  0  0  0  0  0  0  0  0  0  0  0
   27.0111    1.9372   52.5243 C   0  0  0  0  0  0  0  0  0  0  0  0
   29.8734    0.0979   53.6926 C   0  0  0  0  0  0  0  0  0  0  0  0
   29.0713    1.1259   53.9712 O   0  0  0  0  0  0  0  0  0  0  0  0
   22.8823    0.6584   52.1364 N   0  0  0  0  0  0  0  0  0  0  0  0
   23.2826    1.2780   51.3843 H   0  0  0  0  0  0  0  0  0  0  0  0
   21.3639    0.4246   51.9788 C   0  0  0  0  0  0  0  0  0  0  0  0
   20.4429   -0.0525   52.8635 C   0  0  0  0  0  0  0  0  0  0  0  0
   19.0075   -0.2144   52.4632 C   0  0  0  0  0  0  0  0  0  0  0  0
   18.6257    0.1369   51.2436 C   0  0  0  0  0  0  0  0  0  0  0  0
   16.8050   -0.0684   50.7181 Br  0  0  0  0  0  0  0  0  0  0  0  0
   19.6148    0.6892   50.3123 C   0  0  0  0  0  0  0  0  0  0  0  0
   20.8951    0.8114   50.6816 C   0  0  0  0  0  0  0  0  0  0  0  0
   21.7984    1.3121   49.8432 F   0  0  0  0  0  0  0  0  0  0  0  0
   27.3163    3.0148   51.3999 O   0  0  0  0  0  0  0  0  0  0  0  0
   26.5326    3.3711   50.2210 C   0  0  0  0  0  0  0  0  0  0  0  0
 11 12  1  0  0  0
 12  1  1  0  0  0
  1  2  2  0  0  0
  2  3  1  0  0  0
  3  4  2  0  0  0
  4  5  1  0  0  0
  5  6  2  0  0  0
  6  7  1  0  0  0
  7 13  1  0  0  0
 13 15  1  0  0  0
 15 16  2  0  0  0
 16 17  1  0  0  0
 17 18  2  0  0  0
 18 19  1  0  0  0
 18 20  1  0  0  0
 20 21  2  0  0  0
 15 21  1  0  0  0
 21 22  1  0  0  0
  7  8  2  0  0  0
  3  8  1  0  0  0
  8  9  1  0  0  0
  9 10  2  0  0  0
  1 10  1  0  0  0
 10 23  1  0  0  0
 23 24  1  0  0  0
 13 14  1  0  0  0
M  END
> <minimizedAffinity>
-7.67283

$$$$
