CHEMBL293090


 28 30  0  0  0  0  0  0  0  0999 V2000
   22.4329    1.5909   51.0738 C   0  0  0  0  0  0  0  0  0  0  0  0
   23.6116    1.8400   51.7169 C   0  0  0  0  0  0  0  0  0  0  0  0
   24.7315    2.6312   51.0231 C   0  0  0  0  0  0  0  0  0  0  0  0
   25.9216    2.9281   51.5520 C   0  0  0  0  0  0  0  0  0  0  0  0
   26.8325    3.6823   50.7246 N   0  0  0  0  0  0  0  0  0  0  0  0
   26.5389    4.0630   49.5319 C   0  0  0  0  0  0  0  0  0  0  0  0
   25.3663    3.7689   49.0148 N   0  0  0  0  0  0  0  0  0  0  0  0
   24.5237    3.1141   49.6835 C   0  0  0  0  0  0  0  0  0  0  0  0
   23.4066    2.8795   49.0683 C   0  0  0  0  0  0  0  0  0  0  0  0
   22.3995    2.2110   49.5780 C   0  0  0  0  0  0  0  0  0  0  0  0
   26.3977    2.5465   52.9337 N   0  0  0  0  0  0  0  0  0  0  0  0
   26.0828    3.0879   53.7682 H   0  0  0  0  0  0  0  0  0  0  0  0
   27.3438    1.3672   53.1286 C   0  0  0  0  0  0  0  0  0  0  0  0
   28.5757    1.5439   53.6289 C   0  0  0  0  0  0  0  0  0  0  0  0
   29.4997    0.3823   53.8181 C   0  0  0  0  0  0  0  0  0  0  0  0
   29.1233   -0.8580   53.4950 C   0  0  0  0  0  0  0  0  0  0  0  0
   29.9771   -1.9142   53.6723 F   0  0  0  0  0  0  0  0  0  0  0  0
   27.7860   -1.0683   52.9496 C   0  0  0  0  0  0  0  0  0  0  0  0
   27.2366   -2.6431   52.5117 Cl  0  0  0  0  0  0  0  0  0  0  0  0
   26.9577   -0.0430   52.7777 C   0  0  0  0  0  0  0  0  0  0  0  0
   21.5317    2.2284   48.5816 O   0  0  0  0  0  0  0  0  0  0  0  0
   20.2079    2.1516   48.7097 C   0  0  0  0  0  0  0  0  0  0  0  0
   21.3494    0.7647   51.9144 O   0  0  0  0  0  0  0  0  0  0  0  0
   21.5820   -0.2942   52.8471 C   0  0  0  0  0  0  0  0  0  0  0  0
   20.8135   -0.0297   54.1040 C   0  0  0  0  0  0  0  0  0  0  0  0
   22.6603   -1.2663   54.9542 C   0  0  0  0  0  0  0  0  0  0  0  0
   21.2278   -1.0176   55.0741 N   0  0  0  0  0  0  0  0  0  0  0  0
   20.9808   -0.6535   56.0107 H   0  0  0  0  0  0  0  0  0  0  0  0
 26 27  1  0  0  0
 27 25  1  0  0  0
 25 24  1  0  0  0
 24 23  1  0  0  0
 23  1  1  0  0  0
  1  2  2  0  0  0
  2  3  1  0  0  0
  3  4  2  0  0  0
  4 11  1  0  0  0
 11 13  1  0  0  0
 13 14  2  0  0  0
 14 15  1  0  0  0
 15 16  2  0  0  0
 16 17  1  0  0  0
 16 18  1  0  0  0
 18 19  1  0  0  0
 18 20  2  0  0  0
 13 20  1  0  0  0
  4  5  1  0  0  0
  5  6  2  0  0  0
  6  7  1  0  0  0
  7  8  2  0  0  0
  3  8  1  0  0  0
  8  9  1  0  0  0
  9 10  2  0  0  0
  1 10  1  0  0  0
 10 21  1  0  0  0
 21 22  1  0  0  0
 27 28  1  0  0  0
 11 12  1  0  0  0
M  END
> <minimizedAffinity>
-7.66538

$$$$
