CHEMBL553


 30 32  0  0  0  0  0  0  0  0999 V2000
   26.2512    2.7629   50.8805 C   0  0  0  0  0  0  0  0  0  0  0  0
   24.9602    2.3786   51.4125 C   0  0  0  0  0  0  0  0  0  0  0  0
   23.7350    2.4724   50.7114 C   0  0  0  0  0  0  0  0  0  0  0  0
   22.5818    1.9720   51.2704 C   0  0  0  0  0  0  0  0  0  0  0  0
   22.6079    1.3163   52.5419 C   0  0  0  0  0  0  0  0  0  0  0  0
   23.7886    1.2590   53.2434 C   0  0  0  0  0  0  0  0  0  0  0  0
   24.9728    1.8074   52.6999 C   0  0  0  0  0  0  0  0  0  0  0  0
   26.1102    1.7639   53.4641 N   0  0  0  0  0  0  0  0  0  0  0  0
   27.1939    2.2651   52.9131 C   0  0  0  0  0  0  0  0  0  0  0  0
   27.3338    2.7307   51.6640 N   0  0  0  0  0  0  0  0  0  0  0  0
   26.4003    3.1158   49.5891 N   0  0  0  0  0  0  0  0  0  0  0  0
   26.4336    2.4029   48.8320 H   0  0  0  0  0  0  0  0  0  0  0  0
   28.0124    6.1706   48.2064 C   0  0  0  0  0  0  0  0  0  0  0  0
   27.8398    4.8770   48.7086 C   0  0  0  0  0  0  0  0  0  0  0  0
   26.5886    4.4480   49.1525 C   0  0  0  0  0  0  0  0  0  0  0  0
   25.4876    5.2993   49.0456 C   0  0  0  0  0  0  0  0  0  0  0  0
   25.6585    6.5842   48.5324 C   0  0  0  0  0  0  0  0  0  0  0  0
   26.9113    7.0384   48.1257 C   0  0  0  0  0  0  0  0  0  0  0  0
   30.4824    6.6340   47.3773 C   0  0  0  0  0  0  0  0  0  0  0  0
   29.3293    6.4974   47.7244 C   0  0  0  0  0  0  0  0  0  0  0  0
   21.3577    2.0482   50.6658 O   0  0  0  0  0  0  0  0  0  0  0  0
   20.9096    3.3445   50.2817 C   0  0  0  0  0  0  0  0  0  0  0  0
   20.4910    4.0601   51.5453 C   0  0  0  0  0  0  0  0  0  0  0  0
   19.4135    3.3719   52.1297 O   0  0  0  0  0  0  0  0  0  0  0  0
   18.2043    3.5598   51.4205 C   0  0  0  0  0  0  0  0  0  0  0  0
   21.4278    0.7970   52.9803 O   0  0  0  0  0  0  0  0  0  0  0  0
   21.4212    0.1799   54.2743 C   0  0  0  0  0  0  0  0  0  0  0  0
   21.3400   -1.3195   54.1076 C   0  0  0  0  0  0  0  0  0  0  0  0
   21.8927   -1.9030   55.2549 O   0  0  0  0  0  0  0  0  0  0  0  0
   23.2142   -1.4719   55.5175 C   0  0  0  0  0  0  0  0  0  0  0  0
 19 20  3  0  0  0
 20 13  1  0  0  0
 13 14  2  0  0  0
 13 18  1  0  0  0
 14 15  1  0  0  0
 15 11  1  0  0  0
 15 16  2  0  0  0
 11  1  1  0  0  0
 11 12  1  0  0  0
  1  2  2  0  0  0
  1 10  1  0  0  0
  2  7  1  0  0  0
  2  3  1  0  0  0
  3  4  2  0  0  0
  4 21  1  0  0  0
  4  5  1  0  0  0
 21 22  1  0  0  0
 22 23  1  0  0  0
 23 24  1  0  0  0
 24 25  1  0  0  0
  5  6  2  0  0  0
  5 26  1  0  0  0
 26 27  1  0  0  0
 27 28  1  0  0  0
 28 29  1  0  0  0
 29 30  1  0  0  0
  6  7  1  0  0  0
  7  8  2  0  0  0
  8  9  1  0  0  0
  9 10  2  0  0  0
 16 17  1  0  0  0
 17 18  2  0  0  0
M  END
> <minimizedAffinity>
-7.15296

$$$$
