CHEMBL153170


 23 26  0  0  0  0  0  0  0  0999 V2000
   25.5610    0.5458   53.2898 C   0  0  0  0  0  0  0  0  0  0  0  0
   25.1140    1.7843   53.4579 N   0  0  0  0  0  0  0  0  0  0  0  0
   25.9209    2.7998   53.7429 C   0  0  0  0  0  0  0  0  0  0  0  0
   27.2279    2.6172   53.8739 N   0  0  0  0  0  0  0  0  0  0  0  0
   27.7597    1.4132   53.7226 C   0  0  0  0  0  0  0  0  0  0  0  0
   29.1413    1.2562   53.8674 C   0  0  0  0  0  0  0  0  0  0  0  0
   29.7325    0.0046   53.7151 C   0  0  0  0  0  0  0  0  0  0  0  0
   28.9035   -1.0628   53.4179 C   0  0  0  0  0  0  0  0  0  0  0  0
   29.2182   -2.3330   53.2275 N   0  0  0  0  0  0  0  0  0  0  0  0
   28.0583   -2.9410   52.9720 C   0  0  0  0  0  0  0  0  0  0  0  0
   27.0274   -2.0935   52.9960 N   0  0  0  0  0  0  0  0  0  0  0  0
   27.5479   -0.9096   53.2757 C   0  0  0  0  0  0  0  0  0  0  0  0
   26.9341    0.3298   53.4230 C   0  0  0  0  0  0  0  0  0  0  0  0
   30.1133   -2.7411   53.2660 H   0  0  0  0  0  0  0  0  0  0  0  0
   24.6479   -0.5373   52.9792 N   0  0  0  0  0  0  0  0  0  0  0  0
   24.9898   -1.3134   52.4949 H   0  0  0  0  0  0  0  0  0  0  0  0
   19.7905    0.5587   51.2949 Br  0  0  0  0  0  0  0  0  0  0  0  0
   20.9898   -0.0943   52.6162 C   0  0  0  0  0  0  0  0  0  0  0  0
   20.4993   -0.5665   53.8258 C   0  0  0  0  0  0  0  0  0  0  0  0
   21.3808   -1.0423   54.7872 C   0  0  0  0  0  0  0  0  0  0  0  0
   22.7491   -1.0468   54.5416 C   0  0  0  0  0  0  0  0  0  0  0  0
   23.2502   -0.5739   53.3278 C   0  0  0  0  0  0  0  0  0  0  0  0
   22.3577   -0.0994   52.3718 C   0  0  0  0  0  0  0  0  0  0  0  0
 17 18  1  0  0  0
 18 19  2  0  0  0
 19 20  1  0  0  0
 20 21  2  0  0  0
 21 22  1  0  0  0
 22 15  1  0  0  0
 15  1  1  0  0  0
  1  2  2  0  0  0
  2  3  1  0  0  0
  3  4  2  0  0  0
  4  5  1  0  0  0
  5  6  2  0  0  0
  6  7  1  0  0  0
  7  8  2  0  0  0
  8  9  1  0  0  0
  9 10  1  0  0  0
 10 11  2  0  0  0
 11 12  1  0  0  0
  8 12  1  0  0  0
 12 13  2  0  0  0
  1 13  1  0  0  0
  5 13  1  0  0  0
 22 23  2  0  0  0
 18 23  1  0  0  0
 15 16  1  0  0  0
  9 14  1  0  0  0
M  END
> <minimizedAffinity>
-8.33618

$$$$
