CHEMBL336113


 22 24  0  0  0  0  0  0  0  0999 V2000
   23.9658   -0.1750   53.4505 C   0  0  0  0  0  0  0  0  0  0  0  0
   24.2516   -0.7574   54.5764 N   0  0  0  0  0  0  0  0  0  0  0  0
   23.2572   -1.3865   55.4821 C   0  0  0  0  0  0  0  0  0  0  0  0
   22.0138   -1.3892   55.1907 N   0  0  0  0  0  0  0  0  0  0  0  0
   21.5026   -0.7805   53.9635 C   0  0  0  0  0  0  0  0  0  0  0  0
   20.1884   -0.7887   53.6653 C   0  0  0  0  0  0  0  0  0  0  0  0
   19.6627   -0.1503   52.3809 C   0  0  0  0  0  0  0  0  0  0  0  0
   20.5182    0.4384   51.5153 C   0  0  0  0  0  0  0  0  0  0  0  0
   20.0125    1.0850   50.2205 N   0  0  0  0  0  0  0  0  0  0  0  0
   22.0315    0.4318   51.8878 C   0  0  0  0  0  0  0  0  0  0  0  0
   22.4732   -0.1414   53.0341 C   0  0  0  0  0  0  0  0  0  0  0  0
   19.0261    1.0888   49.9788 H   0  0  0  0  0  0  0  0  0  0  0  0
   20.6993    1.5387   49.5601 H   0  0  0  0  0  0  0  0  0  0  0  0
   25.0999    0.4490   52.5874 N   0  0  0  0  0  0  0  0  0  0  0  0
   24.8104    0.7978   51.6435 H   0  0  0  0  0  0  0  0  0  0  0  0
   29.4322   -1.8084   53.3621 C   0  0  0  0  0  0  0  0  0  0  0  0
   28.6544   -0.5205   53.3389 C   0  0  0  0  0  0  0  0  0  0  0  0
   29.2575    0.6249   53.6384 C   0  0  0  0  0  0  0  0  0  0  0  0
   28.5285    1.8927   53.6248 C   0  0  0  0  0  0  0  0  0  0  0  0
   27.2179    1.9110   53.3031 C   0  0  0  0  0  0  0  0  0  0  0  0
   26.5165    0.5965   52.9570 C   0  0  0  0  0  0  0  0  0  0  0  0
   27.2401   -0.5344   52.9874 C   0  0  0  0  0  0  0  0  0  0  0  0
 16 17  1  0  0  0
 17 18  2  0  0  0
 18 19  1  0  0  0
 19 20  2  0  0  0
 20 21  1  0  0  0
 21 14  1  0  0  0
 14  1  1  0  0  0
  1  2  2  0  0  0
  2  3  1  0  0  0
  3  4  2  0  0  0
  4  5  1  0  0  0
  5  6  2  0  0  0
  6  7  1  0  0  0
  7  8  2  0  0  0
  8  9  1  0  0  0
  8 10  1  0  0  0
 10 11  2  0  0  0
  1 11  1  0  0  0
  5 11  1  0  0  0
 21 22  2  0  0  0
 17 22  1  0  0  0
 14 15  1  0  0  0
  9 12  1  0  0  0
  9 13  1  0  0  0
M  END
> <minimizedAffinity>
-7.93482

$$$$
