CHEMBL119033


 21 23  0  0  0  0  0  0  0  0999 V2000
   26.3696   -0.5882   53.0538 C   0  0  0  0  0  0  0  0  0  0  0  0
   26.8985   -1.7919   52.8466 C   0  0  0  0  0  0  0  0  0  0  0  0
   28.3075   -2.1197   52.9491 C   0  0  0  0  0  0  0  0  0  0  0  0
   29.1803   -1.1798   53.2733 C   0  0  0  0  0  0  0  0  0  0  0  0
   28.7521    0.2034   53.5341 C   0  0  0  0  0  0  0  0  0  0  0  0
   29.6370    1.0462   53.8373 N   0  0  0  0  0  0  0  0  0  0  0  0
   29.3329    2.3579   54.0962 C   0  0  0  0  0  0  0  0  0  0  0  0
   28.1264    2.7572   54.0329 N   0  0  0  0  0  0  0  0  0  0  0  0
   27.0349    1.9244   53.7053 C   0  0  0  0  0  0  0  0  0  0  0  0
   27.3158    0.6028   53.4427 C   0  0  0  0  0  0  0  0  0  0  0  0
   23.9691   -0.5695   53.8286 C   0  0  0  0  0  0  0  0  0  0  0  0
   24.9667   -0.6775   52.8598 O   0  0  0  0  0  0  0  0  0  0  0  0
   25.6937    2.5446   53.6736 N   0  0  0  0  0  0  0  0  0  0  0  0
   25.2378    2.7513   54.5222 H   0  0  0  0  0  0  0  0  0  0  0  0
   25.0154    2.8621   52.4134 C   0  0  0  0  0  0  0  0  0  0  0  0
   25.6945    2.8105   51.2601 C   0  0  0  0  0  0  0  0  0  0  0  0
   25.0229    3.1268   49.9942 C   0  0  0  0  0  0  0  0  0  0  0  0
   23.7363    3.4671   49.9805 C   0  0  0  0  0  0  0  0  0  0  0  0
   22.9827    3.5302   51.2078 C   0  0  0  0  0  0  0  0  0  0  0  0
   21.1449    4.0129   51.2201 Br  0  0  0  0  0  0  0  0  0  0  0  0
   23.5693    3.2494   52.3538 C   0  0  0  0  0  0  0  0  0  0  0  0
 11 12  1  0  0  0
 12  1  1  0  0  0
  1  2  2  0  0  0
  2  3  1  0  0  0
  3  4  2  0  0  0
  4  5  1  0  0  0
  5  6  2  0  0  0
  6  7  1  0  0  0
  7  8  2  0  0  0
  8  9  1  0  0  0
  9 13  1  0  0  0
 13 15  1  0  0  0
 15 16  2  0  0  0
 16 17  1  0  0  0
 17 18  2  0  0  0
 18 19  1  0  0  0
 19 20  1  0  0  0
 19 21  2  0  0  0
 15 21  1  0  0  0
  9 10  2  0  0  0
  1 10  1  0  0  0
  5 10  1  0  0  0
 13 14  1  0  0  0
M  END
> <minimizedAffinity>
-7.30668

$$$$
