CHEMBL93032|CHEMBL93032|mol2|1|dock4


 23 25  0  0  0  0  0  0  0  0999 V2000
   24.7224   -1.5033   55.5310 O   0  0  0  0  0  0  0  0  0  0  0  0
   25.2258   -0.6159   54.7843 C   0  0  0  0  0  0  0  0  0  0  0  0
   26.4057   -0.0354   55.0830 C   0  0  0  0  0  0  0  0  0  0  0  0
   26.9475    0.9436   54.1915 C   0  0  0  0  0  0  0  0  0  0  0  0
   28.0763    1.5046   54.4566 N   0  0  0  0  0  0  0  0  0  0  0  0
   28.5993    2.3978   53.6127 C   0  0  0  0  0  0  0  0  0  0  0  0
   28.0040    2.6585   52.5024 N   0  0  0  0  0  0  0  0  0  0  0  0
   26.7654    2.0713   52.0836 C   0  0  0  0  0  0  0  0  0  0  0  0
   26.1957    1.2348   52.9553 C   0  0  0  0  0  0  0  0  0  0  0  0
   24.8808    0.5991   52.7617 C   0  0  0  0  0  0  0  0  0  0  0  0
   24.4134   -0.3055   53.6253 C   0  0  0  0  0  0  0  0  0  0  0  0
   23.0648   -1.0171   53.4392 O   0  0  0  0  0  0  0  0  0  0  0  0
   25.2723   -1.7383   56.3529 H   0  0  0  0  0  0  0  0  0  0  0  0
   22.6642   -0.6723   52.5651 H   0  0  0  0  0  0  0  0  0  0  0  0
   26.3030    2.5468   50.6784 N   0  0  0  0  0  0  0  0  0  0  0  0
   25.9274    1.7860   50.0875 H   0  0  0  0  0  0  0  0  0  0  0  0
   26.1779    3.9247   50.0835 C   0  0  0  0  0  0  0  0  0  0  0  0
   27.1190    4.2241   49.1735 C   0  0  0  0  0  0  0  0  0  0  0  0
   27.1370    5.5120   48.4878 C   0  0  0  0  0  0  0  0  0  0  0  0
   26.2163    6.4302   48.7481 C   0  0  0  0  0  0  0  0  0  0  0  0
   25.1586    6.1664   49.7135 C   0  0  0  0  0  0  0  0  0  0  0  0
   23.8486    7.5244   50.0618 Br  0  0  0  0  0  0  0  0  0  0  0  0
   25.1072    4.9875   50.3469 C   0  0  0  0  0  0  0  0  0  0  0  0
  1  2  1  0  0  0
  2  3  2  0  0  0
  3  4  1  0  0  0
  4  5  2  0  0  0
  5  6  1  0  0  0
  6  7  2  0  0  0
  7  8  1  0  0  0
  8 15  1  0  0  0
 15 17  1  0  0  0
 17 18  2  0  0  0
 18 19  1  0  0  0
 19 20  2  0  0  0
 20 21  1  0  0  0
 21 22  1  0  0  0
 21 23  2  0  0  0
 17 23  1  0  0  0
  8  9  2  0  0  0
  4  9  1  0  0  0
  9 10  1  0  0  0
 10 11  2  0  0  0
  2 11  1  0  0  0
 11 12  1  0  0  0
  1 13  1  0  0  0
 15 16  1  0  0  0
 12 14  1  0  0  0
M  END
> <minimizedAffinity>
-7.91922

$$$$
