CHEMBL555321


 19 21  0  0  0  0  0  0  0  0999 V2000
   26.5515    0.8791   52.8478 C   0  0  0  0  0  0  0  0  0  0  0  0
   26.9233    2.0694   53.1229 N   0  0  0  0  0  0  0  0  0  0  0  0
   28.3187    2.3746   53.5873 C   0  0  0  0  0  0  0  0  0  0  0  0
   29.1817    1.4362   53.7209 N   0  0  0  0  0  0  0  0  0  0  0  0
   28.8862    0.1199   53.4518 C   0  0  0  0  0  0  0  0  0  0  0  0
   29.8138   -0.8344   53.6026 C   0  0  0  0  0  0  0  0  0  0  0  0
   29.4784   -2.2359   53.3098 C   0  0  0  0  0  0  0  0  0  0  0  0
   28.2435   -2.5195   52.8968 C   0  0  0  0  0  0  0  0  0  0  0  0
   27.2380   -1.4734   52.7349 C   0  0  0  0  0  0  0  0  0  0  0  0
   27.5439   -0.2094   53.0000 C   0  0  0  0  0  0  0  0  0  0  0  0
   25.1909    0.5911   52.3962 N   0  0  0  0  0  0  0  0  0  0  0  0
   24.9464    0.7431   51.3885 H   0  0  0  0  0  0  0  0  0  0  0  0
   20.1770    0.4499   53.3845 Cl  0  0  0  0  0  0  0  0  0  0  0  0
   21.7854   -0.0079   53.8028 C   0  0  0  0  0  0  0  0  0  0  0  0
   21.9811   -0.7614   54.8739 C   0  0  0  0  0  0  0  0  0  0  0  0
   23.3005   -1.1686   55.2636 C   0  0  0  0  0  0  0  0  0  0  0  0
   24.3595   -0.7756   54.5237 C   0  0  0  0  0  0  0  0  0  0  0  0
   24.1375    0.0960   53.2843 C   0  0  0  0  0  0  0  0  0  0  0  0
   22.8851    0.4368   52.9814 C   0  0  0  0  0  0  0  0  0  0  0  0
 13 14  1  0  0  0
 14 15  2  0  0  0
 15 16  1  0  0  0
 16 17  2  0  0  0
 17 18  1  0  0  0
 18 11  1  0  0  0
 11  1  1  0  0  0
  1  2  2  0  0  0
  2  3  1  0  0  0
  3  4  2  0  0  0
  4  5  1  0  0  0
  5  6  2  0  0  0
  6  7  1  0  0  0
  7  8  2  0  0  0
  8  9  1  0  0  0
  9 10  2  0  0  0
  1 10  1  0  0  0
  5 10  1  0  0  0
 18 19  2  0  0  0
 14 19  1  0  0  0
 11 12  1  0  0  0
M  END
> <minimizedAffinity>
-7.87265

$$$$
