CHEMBL426580


 24 27  0  0  0  0  0  0  0  0999 V2000
   29.1380    0.5845   54.3090 C   0  0  0  0  0  0  0  0  0  0  0  0
   27.6579    0.2925   54.2057 C   0  0  0  0  0  0  0  0  0  0  0  0
   26.8893    0.6775   53.1816 N   0  0  0  0  0  0  0  0  0  0  0  0
   25.6674    0.2226   53.4833 C   0  0  0  0  0  0  0  0  0  0  0  0
   24.4568    0.3125   52.8045 C   0  0  0  0  0  0  0  0  0  0  0  0
   23.3292   -0.2788   53.3927 C   0  0  0  0  0  0  0  0  0  0  0  0
   22.0864   -0.2313   52.7770 C   0  0  0  0  0  0  0  0  0  0  0  0
   21.0558   -0.8130   53.3894 N   0  0  0  0  0  0  0  0  0  0  0  0
   21.1613   -1.4380   54.5646 C   0  0  0  0  0  0  0  0  0  0  0  0
   22.3362   -1.4975   55.1731 N   0  0  0  0  0  0  0  0  0  0  0  0
   23.4133   -0.9394   54.6233 C   0  0  0  0  0  0  0  0  0  0  0  0
   24.6313   -1.0180   55.2846 C   0  0  0  0  0  0  0  0  0  0  0  0
   25.7291   -0.4276   54.6854 C   0  0  0  0  0  0  0  0  0  0  0  0
   26.9617   -0.3803   55.1254 N   0  0  0  0  0  0  0  0  0  0  0  0
   27.1619    1.1837   52.3824 H   0  0  0  0  0  0  0  0  0  0  0  0
   21.9065    0.4433   51.4805 N   0  0  0  0  0  0  0  0  0  0  0  0
   21.7877   -0.1248   50.6467 H   0  0  0  0  0  0  0  0  0  0  0  0
   21.8884    1.8743   51.3203 C   0  0  0  0  0  0  0  0  0  0  0  0
   21.1657    2.6366   52.2364 C   0  0  0  0  0  0  0  0  0  0  0  0
   21.1194    4.0216   52.1218 C   0  0  0  0  0  0  0  0  0  0  0  0
   21.7971    4.6540   51.0880 C   0  0  0  0  0  0  0  0  0  0  0  0
   22.5195    3.9030   50.1708 C   0  0  0  0  0  0  0  0  0  0  0  0
   23.4469    4.7681   48.7561 Br  0  0  0  0  0  0  0  0  0  0  0  0
   22.5650    2.5195   50.2865 C   0  0  0  0  0  0  0  0  0  0  0  0
  1  2  1  0  0  0
  2  3  1  0  0  0
  3  4  1  0  0  0
  4  5  2  0  0  0
  5  6  1  0  0  0
  6  7  2  0  0  0
  7 16  1  0  0  0
 16 18  1  0  0  0
 18 19  2  0  0  0
 19 20  1  0  0  0
 20 21  2  0  0  0
 21 22  1  0  0  0
 22 23  1  0  0  0
 22 24  2  0  0  0
 18 24  1  0  0  0
  7  8  1  0  0  0
  8  9  2  0  0  0
  9 10  1  0  0  0
 10 11  2  0  0  0
  6 11  1  0  0  0
 11 12  1  0  0  0
 12 13  2  0  0  0
  4 13  1  0  0  0
 13 14  1  0  0  0
  2 14  2  0  0  0
 16 17  1  0  0  0
  3 15  1  0  0  0
M  END
> <minimizedAffinity>
-7.81026

$$$$
