CHEMBL304929


 24 26  0  0  0  0  0  0  0  0999 V2000
   25.9837    0.0535   54.2456 C   0  0  0  0  0  0  0  0  0  0  0  0
   25.0072   -0.7750   54.6818 C   0  0  0  0  0  0  0  0  0  0  0  0
   23.6012   -0.6570   54.3029 C   0  0  0  0  0  0  0  0  0  0  0  0
   22.7440   -1.4928   54.7693 N   0  0  0  0  0  0  0  0  0  0  0  0
   21.4242   -1.4167   54.4385 C   0  0  0  0  0  0  0  0  0  0  0  0
   21.0085   -0.4871   53.6362 N   0  0  0  0  0  0  0  0  0  0  0  0
   21.8959    0.4899   53.0671 C   0  0  0  0  0  0  0  0  0  0  0  0
   23.2097    0.4151   53.3968 C   0  0  0  0  0  0  0  0  0  0  0  0
   24.2926    1.3767   52.8823 C   0  0  0  0  0  0  0  0  0  0  0  0
   25.6153    1.2761   53.2332 C   0  0  0  0  0  0  0  0  0  0  0  0
   28.5935    0.1575   54.6920 C   0  0  0  0  0  0  0  0  0  0  0  0
   27.2410   -0.3897   54.8392 O   0  0  0  0  0  0  0  0  0  0  0  0
   21.2764    1.5360   52.1331 N   0  0  0  0  0  0  0  0  0  0  0  0
   20.5001    2.1401   52.5188 H   0  0  0  0  0  0  0  0  0  0  0  0
   21.6848    1.7686   50.7195 C   0  0  0  0  0  0  0  0  0  0  0  0
   21.3425    0.9925   49.6614 C   0  0  0  0  0  0  0  0  0  0  0  0
   21.8401    1.3604   48.2639 C   0  0  0  0  0  0  0  0  0  0  0  0
   22.5973    2.4311   48.1104 C   0  0  0  0  0  0  0  0  0  0  0  0
   22.9599    3.2530   49.2314 C   0  0  0  0  0  0  0  0  0  0  0  0
   22.5420    2.9586   50.4617 C   0  0  0  0  0  0  0  0  0  0  0  0
   23.7814    4.3960   48.9929 C   0  0  0  0  0  0  0  0  0  0  0  0
   24.4756    5.3627   48.7915 C   0  0  0  0  0  0  0  0  0  0  0  0
   26.5212    2.3876   52.5722 O   0  0  0  0  0  0  0  0  0  0  0  0
   26.6076    2.7788   51.1918 C   0  0  0  0  0  0  0  0  0  0  0  0
 11 12  1  0  0  0
 12  1  1  0  0  0
  1  2  2  0  0  0
  2  3  1  0  0  0
  3  4  2  0  0  0
  4  5  1  0  0  0
  5  6  2  0  0  0
  6  7  1  0  0  0
  7 13  1  0  0  0
 13 15  1  0  0  0
 15 16  2  0  0  0
 16 17  1  0  0  0
 17 18  2  0  0  0
 18 19  1  0  0  0
 19 20  2  0  0  0
 15 20  1  0  0  0
 19 21  1  0  0  0
 21 22  3  0  0  0
  7  8  2  0  0  0
  3  8  1  0  0  0
  8  9  1  0  0  0
  9 10  2  0  0  0
  1 10  1  0  0  0
 10 23  1  0  0  0
 23 24  1  0  0  0
 13 14  1  0  0  0
M  END
> <minimizedAffinity>
-7.29299

$$$$
