CHEMBL330224


 21 23  0  0  0  0  0  0  0  0999 V2000
   28.7849   -3.2117   53.0824 N   0  0  0  0  0  0  0  0  0  0  0  0
   28.3435   -2.0859   53.1229 C   0  0  0  0  0  0  0  0  0  0  0  0
   27.0782   -1.8569   52.7715 C   0  0  0  0  0  0  0  0  0  0  0  0
   26.5959   -0.5604   52.8262 C   0  0  0  0  0  0  0  0  0  0  0  0
   27.4123    0.3913   53.2246 C   0  0  0  0  0  0  0  0  0  0  0  0
   26.9537    1.6527   53.2812 C   0  0  0  0  0  0  0  0  0  0  0  0
   27.7511    2.5734   53.6688 N   0  0  0  0  0  0  0  0  0  0  0  0
   29.1549    2.1818   54.0374 C   0  0  0  0  0  0  0  0  0  0  0  0
   29.5446    0.9974   53.9718 N   0  0  0  0  0  0  0  0  0  0  0  0
   28.7515    0.1076   53.5902 C   0  0  0  0  0  0  0  0  0  0  0  0
   29.2001   -1.0934   53.5401 C   0  0  0  0  0  0  0  0  0  0  0  0
   28.2239   -3.9465   52.7960 H   0  0  0  0  0  0  0  0  0  0  0  0
   29.7890   -3.4912   53.3461 H   0  0  0  0  0  0  0  0  0  0  0  0
   25.5881    1.8207   52.8894 N   0  0  0  0  0  0  0  0  0  0  0  0
   24.8713    1.5050   53.5991 H   0  0  0  0  0  0  0  0  0  0  0  0
   25.1685    2.3793   51.6206 C   0  0  0  0  0  0  0  0  0  0  0  0
   23.8809    2.2665   51.2663 C   0  0  0  0  0  0  0  0  0  0  0  0
   23.4099    2.8124   49.9991 C   0  0  0  0  0  0  0  0  0  0  0  0
   24.2520    3.4297   49.1780 C   0  0  0  0  0  0  0  0  0  0  0  0
   25.6584    3.5784   49.5157 C   0  0  0  0  0  0  0  0  0  0  0  0
   26.1176    3.0832   50.6792 C   0  0  0  0  0  0  0  0  0  0  0  0
  1  2  1  0  0  0
  2  3  2  0  0  0
  3  4  1  0  0  0
  4  5  2  0  0  0
  5  6  1  0  0  0
  6 14  1  0  0  0
 14 16  1  0  0  0
 16 17  2  0  0  0
 17 18  1  0  0  0
 18 19  2  0  0  0
 19 20  1  0  0  0
 20 21  2  0  0  0
 16 21  1  0  0  0
  6  7  2  0  0  0
  7  8  1  0  0  0
  8  9  2  0  0  0
  9 10  1  0  0  0
  5 10  1  0  0  0
 10 11  2  0  0  0
  2 11  1  0  0  0
  1 12  1  0  0  0
  1 13  1  0  0  0
 14 15  1  0  0  0
M  END
> <minimizedAffinity>
-8.03049

$$$$
