CHEMBL92709


 24 26  0  0  0  0  0  0  0  0999 V2000
   25.3815   -0.4841   54.8168 C   0  0  0  0  0  0  0  0  0  0  0  0
   26.5226    0.1494   54.9420 C   0  0  0  0  0  0  0  0  0  0  0  0
   27.0082    0.9666   54.0420 C   0  0  0  0  0  0  0  0  0  0  0  0
   28.1017    1.4924   54.3481 N   0  0  0  0  0  0  0  0  0  0  0  0
   28.6776    2.3640   53.5571 C   0  0  0  0  0  0  0  0  0  0  0  0
   28.0874    2.7325   52.4769 N   0  0  0  0  0  0  0  0  0  0  0  0
   26.8113    2.2148   52.0612 C   0  0  0  0  0  0  0  0  0  0  0  0
   26.2694    1.2612   52.8486 C   0  0  0  0  0  0  0  0  0  0  0  0
   24.9863    0.4929   52.6078 C   0  0  0  0  0  0  0  0  0  0  0  0
   24.4660   -0.3633   53.5161 C   0  0  0  0  0  0  0  0  0  0  0  0
   25.7620   -0.6624   57.0780 C   0  0  0  0  0  0  0  0  0  0  0  0
   25.2842   -1.1241   55.9357 O   0  0  0  0  0  0  0  0  0  0  0  0
   26.3098    2.8673   50.7535 N   0  0  0  0  0  0  0  0  0  0  0  0
   27.0220    2.9656   50.0115 H   0  0  0  0  0  0  0  0  0  0  0  0
   24.9632    3.4976   50.4214 C   0  0  0  0  0  0  0  0  0  0  0  0
   24.0672    2.6840   49.8293 C   0  0  0  0  0  0  0  0  0  0  0  0
   22.7233    3.1646   49.4355 C   0  0  0  0  0  0  0  0  0  0  0  0
   21.4884    1.9688   48.5977 Br  0  0  0  0  0  0  0  0  0  0  0  0
   22.3720    4.4250   49.6619 C   0  0  0  0  0  0  0  0  0  0  0  0
   23.3049    5.3567   50.2892 C   0  0  0  0  0  0  0  0  0  0  0  0
   22.7646    7.1779   50.6104 Br  0  0  0  0  0  0  0  0  0  0  0  0
   24.5294    4.9481   50.6413 C   0  0  0  0  0  0  0  0  0  0  0  0
   23.0706   -1.0338   53.0689 O   0  0  0  0  0  0  0  0  0  0  0  0
   21.8126   -1.2071   53.8078 C   0  0  0  0  0  0  0  0  0  0  0  0
 11 12  1  0  0  0
 12  1  1  0  0  0
  1  2  2  0  0  0
  2  3  1  0  0  0
  3  4  2  0  0  0
  4  5  1  0  0  0
  5  6  2  0  0  0
  6  7  1  0  0  0
  7 13  1  0  0  0
 13 15  1  0  0  0
 15 16  2  0  0  0
 16 17  1  0  0  0
 17 18  1  0  0  0
 17 19  2  0  0  0
 19 20  1  0  0  0
 20 21  1  0  0  0
 20 22  2  0  0  0
 15 22  1  0  0  0
  7  8  2  0  0  0
  3  8  1  0  0  0
  8  9  1  0  0  0
  9 10  2  0  0  0
  1 10  1  0  0  0
 10 23  1  0  0  0
 23 24  1  0  0  0
 13 14  1  0  0  0
M  END
> <minimizedAffinity>
-7.27427

$$$$
