CHEMBL208594


 22 24  0  0  0  0  0  0  0  0999 V2000
   24.0502   -0.4141   53.6009 C   0  0  0  0  0  0  0  0  0  0  0  0
   24.8004   -0.6917   54.6956 C   0  0  0  0  0  0  0  0  0  0  0  0
   26.1708   -0.0052   54.8761 C   0  0  0  0  0  0  0  0  0  0  0  0
   26.6390    0.8681   53.9624 C   0  0  0  0  0  0  0  0  0  0  0  0
   27.9287    1.5064   54.1487 N   0  0  0  0  0  0  0  0  0  0  0  0
   28.3892    2.3351   53.3024 C   0  0  0  0  0  0  0  0  0  0  0  0
   27.6127    2.6630   52.1032 N   0  0  0  0  0  0  0  0  0  0  0  0
   26.4536    2.2020   51.7602 C   0  0  0  0  0  0  0  0  0  0  0  0
   25.8189    1.1853   52.7421 C   0  0  0  0  0  0  0  0  0  0  0  0
   24.6236    0.5932   52.5780 C   0  0  0  0  0  0  0  0  0  0  0  0
   21.5186   -0.3294   52.6820 C   0  0  0  0  0  0  0  0  0  0  0  0
   22.6797   -1.0467   53.3392 N   0  0  0  0  0  0  0  0  0  0  0  0
   22.5133   -2.0276   53.6216 H   0  0  0  0  0  0  0  0  0  0  0  0
   26.0074    2.8342   50.3927 N   0  0  0  0  0  0  0  0  0  0  0  0
   25.4076    2.1823   49.8769 H   0  0  0  0  0  0  0  0  0  0  0  0
   26.2133    4.0937   49.6687 C   0  0  0  0  0  0  0  0  0  0  0  0
   25.1092    4.8547   49.5407 C   0  0  0  0  0  0  0  0  0  0  0  0
   25.1497    6.1350   48.8483 C   0  0  0  0  0  0  0  0  0  0  0  0
   26.2859    6.5735   48.3291 C   0  0  0  0  0  0  0  0  0  0  0  0
   27.4835    5.7766   48.4540 C   0  0  0  0  0  0  0  0  0  0  0  0
   28.7844    6.2694   47.8633 C   0  0  0  0  0  0  0  0  0  0  0  0
   27.4635    4.5999   49.0869 C   0  0  0  0  0  0  0  0  0  0  0  0
 11 12  1  0  0  0
 12  1  1  0  0  0
  1  2  2  0  0  0
  2  3  1  0  0  0
  3  4  2  0  0  0
  4  5  1  0  0  0
  5  6  2  0  0  0
  6  7  1  0  0  0
  7  8  2  0  0  0
  8 14  1  0  0  0
 14 16  1  0  0  0
 16 17  2  0  0  0
 17 18  1  0  0  0
 18 19  2  0  0  0
 19 20  1  0  0  0
 20 21  1  0  0  0
 20 22  2  0  0  0
 16 22  1  0  0  0
  8  9  1  0  0  0
  4  9  1  0  0  0
  9 10  2  0  0  0
  1 10  1  0  0  0
 12 13  1  0  0  0
 14 15  1  0  0  0
M  END
> <minimizedAffinity>
-7.59459

$$$$
