CHEMBL117697|CHEMBL117697|mol2|1|dock3


 20 22  0  0  0  0  0  0  0  0999 V2000
   25.2345    0.5201   52.3435 N   0  0  0  0  0  0  0  0  0  0  0  0
   25.0236    0.6335   51.3245 H   0  0  0  0  0  0  0  0  0  0  0  0
   26.5980    0.8217   52.8212 C   0  0  0  0  0  0  0  0  0  0  0  0
   26.9721    2.0129   53.1000 N   0  0  0  0  0  0  0  0  0  0  0  0
   28.3573    2.3185   53.5853 C   0  0  0  0  0  0  0  0  0  0  0  0
   29.2165    1.3794   53.7359 N   0  0  0  0  0  0  0  0  0  0  0  0
   28.9237    0.0626   53.4665 C   0  0  0  0  0  0  0  0  0  0  0  0
   29.8471   -0.8931   53.6354 C   0  0  0  0  0  0  0  0  0  0  0  0
   29.5129   -2.2950   53.3413 C   0  0  0  0  0  0  0  0  0  0  0  0
   28.2840   -2.5773   52.9093 C   0  0  0  0  0  0  0  0  0  0  0  0
   27.2833   -1.5297   52.7278 C   0  0  0  0  0  0  0  0  0  0  0  0
   27.5874   -0.2661   52.9938 C   0  0  0  0  0  0  0  0  0  0  0  0
   21.7647    0.0241   53.6665 C   0  0  0  0  0  0  0  0  0  0  0  0
   21.9334   -0.7110   54.7692 C   0  0  0  0  0  0  0  0  0  0  0  0
   23.2430   -1.1237   55.1921 C   0  0  0  0  0  0  0  0  0  0  0  0
   24.3222   -0.7663   54.4684 C   0  0  0  0  0  0  0  0  0  0  0  0
   24.1485    0.0683   53.2134 C   0  0  0  0  0  0  0  0  0  0  0  0
   22.9112    0.4231   52.8679 C   0  0  0  0  0  0  0  0  0  0  0  0
   19.4204   -0.5221   53.2939 C   0  0  0  0  0  0  0  0  0  0  0  0
   20.4892    0.4519   53.2148 O   0  0  0  0  0  0  0  0  0  0  0  0
 19 20  1  0  0  0
 20 13  1  0  0  0
 13 14  2  0  0  0
 14 15  1  0  0  0
 15 16  2  0  0  0
 16 17  1  0  0  0
 17  1  1  0  0  0
  1  3  1  0  0  0
  3  4  2  0  0  0
  4  5  1  0  0  0
  5  6  2  0  0  0
  6  7  1  0  0  0
  7  8  2  0  0  0
  8  9  1  0  0  0
  9 10  2  0  0  0
 10 11  1  0  0  0
 11 12  2  0  0  0
  3 12  1  0  0  0
  7 12  1  0  0  0
 17 18  2  0  0  0
 13 18  1  0  0  0
  1  2  1  0  0  0
M  END
> <minimizedAffinity>
-7.68308

$$$$
