CHEMBL1688539|CHEMBL1688539|mol2|1|dock1


 20 22  0  0  0  0  0  0  0  0999 V2000
   24.9103    0.1651   52.6744 N   0  0  0  0  0  0  0  0  0  0  0  0
   24.7244    0.8084   51.8747 H   0  0  0  0  0  0  0  0  0  0  0  0
   23.8062   -0.3435   53.4831 C   0  0  0  0  0  0  0  0  0  0  0  0
   24.0568   -0.9132   54.5958 N   0  0  0  0  0  0  0  0  0  0  0  0
   22.9509   -1.4507   55.4590 C   0  0  0  0  0  0  0  0  0  0  0  0
   21.7261   -1.3458   55.0901 N   0  0  0  0  0  0  0  0  0  0  0  0
   21.3610   -0.7452   53.9032 C   0  0  0  0  0  0  0  0  0  0  0  0
   20.0743   -0.6507   53.5453 C   0  0  0  0  0  0  0  0  0  0  0  0
   19.7136   -0.0044   52.2726 C   0  0  0  0  0  0  0  0  0  0  0  0
   20.6922    0.4739   51.5037 C   0  0  0  0  0  0  0  0  0  0  0  0
   22.0910    0.3654   51.9036 C   0  0  0  0  0  0  0  0  0  0  0  0
   22.4086   -0.2173   53.0501 C   0  0  0  0  0  0  0  0  0  0  0  0
   30.4467   -0.9489   53.8395 F   0  0  0  0  0  0  0  0  0  0  0  0
   29.1272   -0.7268   53.5472 C   0  0  0  0  0  0  0  0  0  0  0  0
   28.3957   -1.6915   53.0195 C   0  0  0  0  0  0  0  0  0  0  0  0
   26.9190   -1.4254   52.6984 C   0  0  0  0  0  0  0  0  0  0  0  0
   26.3637   -0.2109   52.9521 C   0  0  0  0  0  0  0  0  0  0  0  0
   27.2476    0.8251   53.5462 C   0  0  0  0  0  0  0  0  0  0  0  0
   28.5292    0.5701   53.8168 C   0  0  0  0  0  0  0  0  0  0  0  0
   29.5134    1.8129   54.5082 Cl  0  0  0  0  0  0  0  0  0  0  0  0
 13 14  1  0  0  0
 14 15  2  0  0  0
 15 16  1  0  0  0
 16 17  2  0  0  0
 17  1  1  0  0  0
  1  3  1  0  0  0
  3  4  2  0  0  0
  4  5  1  0  0  0
  5  6  2  0  0  0
  6  7  1  0  0  0
  7  8  2  0  0  0
  8  9  1  0  0  0
  9 10  2  0  0  0
 10 11  1  0  0  0
 11 12  2  0  0  0
  3 12  1  0  0  0
  7 12  1  0  0  0
 17 18  1  0  0  0
 18 19  2  0  0  0
 14 19  1  0  0  0
 19 20  1  0  0  0
  1  2  1  0  0  0
M  END
> <minimizedAffinity>
-7.97594

$$$$
