CHEMBL176582


 23 26  0  0  0  0  0  0  0  0999 V2000
   27.4127    2.0727   52.5085 C   0  0  0  0  0  0  0  0  0  0  0  0
   26.7978    1.0804   53.4547 N   0  0  0  0  0  0  0  0  0  0  0  0
   27.4471    0.3538   54.4770 C   0  0  0  0  0  0  0  0  0  0  0  0
   26.6290   -0.4325   55.0899 N   0  0  0  0  0  0  0  0  0  0  0  0
   25.4911   -0.3572   54.6402 C   0  0  0  0  0  0  0  0  0  0  0  0
   24.5201   -1.0767   55.1382 C   0  0  0  0  0  0  0  0  0  0  0  0
   23.2874   -0.9560   54.5980 C   0  0  0  0  0  0  0  0  0  0  0  0
   22.3879   -1.6607   55.0884 N   0  0  0  0  0  0  0  0  0  0  0  0
   21.1958   -1.6047   54.6152 C   0  0  0  0  0  0  0  0  0  0  0  0
   20.8991   -0.8349   53.6198 N   0  0  0  0  0  0  0  0  0  0  0  0
   21.8428    0.0270   52.9533 C   0  0  0  0  0  0  0  0  0  0  0  0
   23.0868   -0.0140   53.4558 C   0  0  0  0  0  0  0  0  0  0  0  0
   24.2910    0.7689   52.9996 C   0  0  0  0  0  0  0  0  0  0  0  0
   25.4384    0.5539   53.6059 C   0  0  0  0  0  0  0  0  0  0  0  0
   21.1967    0.8522   51.7538 N   0  0  0  0  0  0  0  0  0  0  0  0
   20.1833    1.0815   51.9162 H   0  0  0  0  0  0  0  0  0  0  0  0
   21.7272    1.3838   50.4037 C   0  0  0  0  0  0  0  0  0  0  0  0
   21.3621    0.9928   49.1697 C   0  0  0  0  0  0  0  0  0  0  0  0
   21.9649    1.5833   47.9512 C   0  0  0  0  0  0  0  0  0  0  0  0
   22.8827    2.5381   48.0611 C   0  0  0  0  0  0  0  0  0  0  0  0
   23.3024    3.0123   49.3673 C   0  0  0  0  0  0  0  0  0  0  0  0
   24.6095    4.3949   49.4906 Br  0  0  0  0  0  0  0  0  0  0  0  0
   22.7744    2.4827   50.4783 C   0  0  0  0  0  0  0  0  0  0  0  0
  1  2  1  0  0  0
  2  3  1  0  0  0
  3  4  2  0  0  0
  4  5  1  0  0  0
  5  6  2  0  0  0
  6  7  1  0  0  0
  7  8  2  0  0  0
  8  9  1  0  0  0
  9 10  2  0  0  0
 10 11  1  0  0  0
 11 15  1  0  0  0
 15 17  1  0  0  0
 17 18  2  0  0  0
 18 19  1  0  0  0
 19 20  2  0  0  0
 20 21  1  0  0  0
 21 22  1  0  0  0
 21 23  2  0  0  0
 17 23  1  0  0  0
 11 12  2  0  0  0
  7 12  1  0  0  0
 12 13  1  0  0  0
 13 14  2  0  0  0
  2 14  1  0  0  0
  5 14  1  0  0  0
 15 16  1  0  0  0
M  END
> <minimizedAffinity>
-8.11348

$$$$
