CHEMBL544833|CHEMBL544833|mol2|1|dock6


 26 28  0  0  0  0  0  0  0  0999 V2000
   22.9843    2.0465   51.8204 C   0  0  0  0  0  0  0  0  0  0  0  0
   22.6590    3.2922   51.7459 N   0  0  0  0  0  0  0  0  0  0  0  0
   23.4357    4.3702   52.4263 C   0  0  0  0  0  0  0  0  0  0  0  0
   24.4654    4.0815   53.1099 N   0  0  0  0  0  0  0  0  0  0  0  0
   24.8999    2.7232   53.2400 C   0  0  0  0  0  0  0  0  0  0  0  0
   25.9770    2.4157   53.9475 C   0  0  0  0  0  0  0  0  0  0  0  0
   26.4308    0.9824   54.0776 C   0  0  0  0  0  0  0  0  0  0  0  0
   25.7641   -0.0143   53.4873 C   0  0  0  0  0  0  0  0  0  0  0  0
   24.5385    0.3584   52.6867 C   0  0  0  0  0  0  0  0  0  0  0  0
   24.1553    1.6511   52.5869 C   0  0  0  0  0  0  0  0  0  0  0  0
   22.1417    1.0391   51.1162 N   0  0  0  0  0  0  0  0  0  0  0  0
   22.3805    0.7720   50.1394 H   0  0  0  0  0  0  0  0  0  0  0  0
   18.7254   -1.0284   53.0751 C   0  0  0  0  0  0  0  0  0  0  0  0
   18.5375   -0.3161   51.9632 C   0  0  0  0  0  0  0  0  0  0  0  0
   19.6839    0.4117   51.2645 C   0  0  0  0  0  0  0  0  0  0  0  0
   20.9426    0.3622   51.7415 C   0  0  0  0  0  0  0  0  0  0  0  0
   21.1838   -0.4107   52.9660 C   0  0  0  0  0  0  0  0  0  0  0  0
   20.2272   -1.0732   53.6381 C   0  0  0  0  0  0  0  0  0  0  0  0
   16.3280   -2.1032   52.7140 C   0  0  0  0  0  0  0  0  0  0  0  0
   17.4183   -1.6311   53.5227 O   0  0  0  0  0  0  0  0  0  0  0  0
   20.8329   -1.7139   54.7987 O   0  0  0  0  0  0  0  0  0  0  0  0
   22.1994   -1.6896   55.1717 C   0  0  0  0  0  0  0  0  0  0  0  0
   27.5557    0.6416   54.8105 O   0  0  0  0  0  0  0  0  0  0  0  0
   28.8334    1.1191   54.2577 C   0  0  0  0  0  0  0  0  0  0  0  0
   26.2847   -1.4309   53.6626 O   0  0  0  0  0  0  0  0  0  0  0  0
   26.9960   -1.9956   52.4797 C   0  0  0  0  0  0  0  0  0  0  0  0
 19 20  1  0  0  0
 20 13  1  0  0  0
 13 14  2  0  0  0
 14 15  1  0  0  0
 15 16  2  0  0  0
 16 11  1  0  0  0
 11  1  1  0  0  0
  1  2  2  0  0  0
  2  3  1  0  0  0
  3  4  2  0  0  0
  4  5  1  0  0  0
  5  6  2  0  0  0
  6  7  1  0  0  0
  7 23  1  0  0  0
 23 24  1  0  0  0
  7  8  2  0  0  0
  8 25  1  0  0  0
 25 26  1  0  0  0
  8  9  1  0  0  0
  9 10  2  0  0  0
  1 10  1  0  0  0
  5 10  1  0  0  0
 16 17  1  0  0  0
 17 18  2  0  0  0
 13 18  1  0  0  0
 18 21  1  0  0  0
 21 22  1  0  0  0
 11 12  1  0  0  0
M  END
> <minimizedAffinity>
-7.27410

$$$$
