CHEMBL172652|CHEMBL172652|mol2|1|dock3


 23 26  0  0  0  0  0  0  0  0999 V2000
   24.5667    1.0779   52.6993 C   0  0  0  0  0  0  0  0  0  0  0  0
   24.4231    2.3554   53.0567 N   0  0  0  0  0  0  0  0  0  0  0  0
   25.4011    3.0396   53.6728 C   0  0  0  0  0  0  0  0  0  0  0  0
   26.5575    2.4486   53.9464 N   0  0  0  0  0  0  0  0  0  0  0  0
   26.7693    1.1743   53.6174 C   0  0  0  0  0  0  0  0  0  0  0  0
   27.9891    0.5654   53.9106 C   0  0  0  0  0  0  0  0  0  0  0  0
   28.1466   -0.7612   53.5427 C   0  0  0  0  0  0  0  0  0  0  0  0
   29.1669   -1.5716   53.6902 N   0  0  0  0  0  0  0  0  0  0  0  0
   28.8349   -2.7021   53.1890 N   0  0  0  0  0  0  0  0  0  0  0  0
   27.6480   -2.6964   52.7130 N   0  0  0  0  0  0  0  0  0  0  0  0
   27.1742   -1.4736   52.9196 C   0  0  0  0  0  0  0  0  0  0  0  0
   25.9540   -0.8965   52.6161 C   0  0  0  0  0  0  0  0  0  0  0  0
   25.7655    0.4423   52.9753 C   0  0  0  0  0  0  0  0  0  0  0  0
   30.0300   -1.3512   54.1095 H   0  0  0  0  0  0  0  0  0  0  0  0
   23.5018    0.3289   52.0270 N   0  0  0  0  0  0  0  0  0  0  0  0
   23.6356    0.1146   51.0294 H   0  0  0  0  0  0  0  0  0  0  0  0
   18.2434    0.2568   51.5974 Br  0  0  0  0  0  0  0  0  0  0  0  0
   19.8449   -0.2085   52.5086 C   0  0  0  0  0  0  0  0  0  0  0  0
   19.7848   -0.9446   53.6811 C   0  0  0  0  0  0  0  0  0  0  0  0
   20.9494   -1.2881   54.3519 C   0  0  0  0  0  0  0  0  0  0  0  0
   22.1941   -0.8880   53.8401 C   0  0  0  0  0  0  0  0  0  0  0  0
   22.2596   -0.1428   52.6535 C   0  0  0  0  0  0  0  0  0  0  0  0
   21.0735    0.1883   52.0003 C   0  0  0  0  0  0  0  0  0  0  0  0
 17 18  1  0  0  0
 18 19  2  0  0  0
 19 20  1  0  0  0
 20 21  2  0  0  0
 21 22  1  0  0  0
 22 15  1  0  0  0
 15  1  1  0  0  0
  1  2  2  0  0  0
  2  3  1  0  0  0
  3  4  2  0  0  0
  4  5  1  0  0  0
  5  6  2  0  0  0
  6  7  1  0  0  0
  7  8  1  0  0  0
  8  9  1  0  0  0
  9 10  2  0  0  0
 10 11  1  0  0  0
  7 11  2  0  0  0
 11 12  1  0  0  0
 12 13  2  0  0  0
  1 13  1  0  0  0
  5 13  1  0  0  0
 22 23  2  0  0  0
 18 23  1  0  0  0
 15 16  1  0  0  0
  8 14  1  0  0  0
M  END
> <minimizedAffinity>
-8.28520

$$$$
