CHEMBL92825|CHEMBL92825|mol2|1|dock2


 19 21  0  0  0  0  0  0  0  0999 V2000
   26.6128    0.8629   52.8522 C   0  0  0  0  0  0  0  0  0  0  0  0
   26.9803    2.0557   53.1335 N   0  0  0  0  0  0  0  0  0  0  0  0
   28.3642    2.3692   53.6141 C   0  0  0  0  0  0  0  0  0  0  0  0
   29.2305    1.4356   53.7585 N   0  0  0  0  0  0  0  0  0  0  0  0
   28.9454    0.1174   53.4859 C   0  0  0  0  0  0  0  0  0  0  0  0
   29.8756   -0.8327   53.6483 C   0  0  0  0  0  0  0  0  0  0  0  0
   29.5496   -2.2359   53.3510 C   0  0  0  0  0  0  0  0  0  0  0  0
   28.3209   -2.5249   52.9228 C   0  0  0  0  0  0  0  0  0  0  0  0
   27.3127   -1.4835   52.7485 C   0  0  0  0  0  0  0  0  0  0  0  0
   27.6096   -0.2188   53.0174 C   0  0  0  0  0  0  0  0  0  0  0  0
   25.2498    0.5557   52.3790 N   0  0  0  0  0  0  0  0  0  0  0  0
   25.0173    0.7170   51.3710 H   0  0  0  0  0  0  0  0  0  0  0  0
   19.8792    0.0762   52.9641 I   0  0  0  0  0  0  0  0  0  0  0  0
   21.8099   -0.2499   53.6203 C   0  0  0  0  0  0  0  0  0  0  0  0
   22.0062   -0.8996   54.7589 C   0  0  0  0  0  0  0  0  0  0  0  0
   23.3381   -1.1509   55.2574 C   0  0  0  0  0  0  0  0  0  0  0  0
   24.4064   -0.7175   54.5533 C   0  0  0  0  0  0  0  0  0  0  0  0
   24.1868    0.0327   53.2391 C   0  0  0  0  0  0  0  0  0  0  0  0
   22.9284    0.2325   52.8335 C   0  0  0  0  0  0  0  0  0  0  0  0
 13 14  1  0  0  0
 14 15  2  0  0  0
 15 16  1  0  0  0
 16 17  2  0  0  0
 17 18  1  0  0  0
 18 11  1  0  0  0
 11  1  1  0  0  0
  1  2  2  0  0  0
  2  3  1  0  0  0
  3  4  2  0  0  0
  4  5  1  0  0  0
  5  6  2  0  0  0
  6  7  1  0  0  0
  7  8  2  0  0  0
  8  9  1  0  0  0
  9 10  2  0  0  0
  1 10  1  0  0  0
  5 10  1  0  0  0
 18 19  2  0  0  0
 14 19  1  0  0  0
 11 12  1  0  0  0
M  END
> <minimizedAffinity>
-7.84193

$$$$
