CHEMBL2333985|CHEMBL2333985|mol2|1|dock3


 26 28  0  0  0  0  0  0  0  0999 V2000
   18.6230   -0.3831   52.3687 C   0  0  0  0  0  0  0  0  0  0  0  0
   19.1984   -0.9406   53.4094 C   0  0  0  0  0  0  0  0  0  0  0  0
   20.4899   -0.8885   53.6568 C   0  0  0  0  0  0  0  0  0  0  0  0
   20.8668   -1.4884   54.6899 N   0  0  0  0  0  0  0  0  0  0  0  0
   22.1455   -1.4919   55.0231 C   0  0  0  0  0  0  0  0  0  0  0  0
   23.0154   -0.8657   54.3145 N   0  0  0  0  0  0  0  0  0  0  0  0
   22.6762   -0.1426   53.1463 C   0  0  0  0  0  0  0  0  0  0  0  0
   21.3716   -0.1675   52.7798 C   0  0  0  0  0  0  0  0  0  0  0  0
   20.7672    0.4707   51.5257 C   0  0  0  0  0  0  0  0  0  0  0  0
   19.4472    0.4265   51.2494 C   0  0  0  0  0  0  0  0  0  0  0  0
   16.4026   -0.1531   51.8002 C   0  0  0  0  0  0  0  0  0  0  0  0
   17.3651   -0.6700   52.5485 O   0  0  0  0  0  0  0  0  0  0  0  0
   23.8665    0.5440   52.4218 N   0  0  0  0  0  0  0  0  0  0  0  0
   23.6428    1.1667   51.5931 H   0  0  0  0  0  0  0  0  0  0  0  0
   25.1264    0.4748   52.8681 C   0  0  0  0  0  0  0  0  0  0  0  0
   25.8168   -0.6472   52.6755 C   0  0  0  0  0  0  0  0  0  0  0  0
   27.1721   -0.6658   53.0346 C   0  0  0  0  0  0  0  0  0  0  0  0
   27.7170    0.4030   53.5748 C   0  0  0  0  0  0  0  0  0  0  0  0
   27.0217    1.5836   53.8694 C   0  0  0  0  0  0  0  0  0  0  0  0
   25.7566    1.6509   53.5399 C   0  0  0  0  0  0  0  0  0  0  0  0
   29.0251    0.3533   53.8263 C   0  0  0  0  0  0  0  0  0  0  0  0
   29.6301   -1.0213   53.4387 C   0  0  0  0  0  0  0  0  0  0  0  0
   29.2248    0.5124   55.1777 F   0  0  0  0  0  0  0  0  0  0  0  0
   29.6723    1.3417   53.1196 F   0  0  0  0  0  0  0  0  0  0  0  0
   19.0554    1.1899   49.8803 O   0  0  0  0  0  0  0  0  0  0  0  0
   19.8417    2.1604   49.0981 C   0  0  0  0  0  0  0  0  0  0  0  0
 11 12  1  0  0  0
 12  1  1  0  0  0
  1  2  2  0  0  0
  2  3  1  0  0  0
  3  4  2  0  0  0
  4  5  1  0  0  0
  5  6  2  0  0  0
  6  7  1  0  0  0
  7 13  1  0  0  0
 13 15  1  0  0  0
 15 16  2  0  0  0
 16 17  1  0  0  0
 17 18  2  0  0  0
 18 19  1  0  0  0
 19 20  2  0  0  0
 15 20  1  0  0  0
 18 21  1  0  0  0
 21 22  1  0  0  0
 21 23  1  0  0  0
 21 24  1  0  0  0
  7  8  2  0  0  0
  3  8  1  0  0  0
  8  9  1  0  0  0
  9 10  2  0  0  0
  1 10  1  0  0  0
 10 25  1  0  0  0
 25 26  1  0  0  0
 13 14  1  0  0  0
M  END
> <minimizedAffinity>
-7.78415

$$$$
