CHEMBL93302


 21 23  0  0  0  0  0  0  0  0999 V2000
   29.5575    1.7337   53.2064 O   0  0  0  0  0  0  0  0  0  0  0  0
   28.4754    1.1520   53.4223 C   0  0  0  0  0  0  0  0  0  0  0  0
   27.5699    0.8417   52.4861 C   0  0  0  0  0  0  0  0  0  0  0  0
   26.3744    0.1710   52.8928 C   0  0  0  0  0  0  0  0  0  0  0  0
   26.2270   -0.1073   54.1738 C   0  0  0  0  0  0  0  0  0  0  0  0
   25.1062   -0.7556   54.6542 C   0  0  0  0  0  0  0  0  0  0  0  0
   25.0722   -0.9750   55.9135 N   0  0  0  0  0  0  0  0  0  0  0  0
   26.1556   -0.5646   56.8058 C   0  0  0  0  0  0  0  0  0  0  0  0
   27.1596    0.0190   56.3569 N   0  0  0  0  0  0  0  0  0  0  0  0
   27.2435    0.2599   55.1104 C   0  0  0  0  0  0  0  0  0  0  0  0
   28.3047    0.8588   54.7275 C   0  0  0  0  0  0  0  0  0  0  0  0
   29.4907    2.3861   52.5093 H   0  0  0  0  0  0  0  0  0  0  0  0
   24.0163   -1.1683   53.7406 N   0  0  0  0  0  0  0  0  0  0  0  0
   24.0816   -2.0492   53.2043 H   0  0  0  0  0  0  0  0  0  0  0  0
   22.8414   -0.3426   53.5928 C   0  0  0  0  0  0  0  0  0  0  0  0
   21.7842   -0.4989   54.3989 C   0  0  0  0  0  0  0  0  0  0  0  0
   20.5999    0.3586   54.2276 C   0  0  0  0  0  0  0  0  0  0  0  0
   20.5790    1.2882   53.2735 C   0  0  0  0  0  0  0  0  0  0  0  0
   21.7161    1.4608   52.4015 C   0  0  0  0  0  0  0  0  0  0  0  0
   21.7464    2.7650   51.0263 Br  0  0  0  0  0  0  0  0  0  0  0  0
   22.7768    0.6972   52.5500 C   0  0  0  0  0  0  0  0  0  0  0  0
  1  2  1  0  0  0
  2  3  2  0  0  0
  3  4  1  0  0  0
  4  5  2  0  0  0
  5  6  1  0  0  0
  6 13  1  0  0  0
 13 15  1  0  0  0
 15 16  2  0  0  0
 16 17  1  0  0  0
 17 18  2  0  0  0
 18 19  1  0  0  0
 19 20  1  0  0  0
 19 21  2  0  0  0
 15 21  1  0  0  0
  6  7  2  0  0  0
  7  8  1  0  0  0
  8  9  2  0  0  0
  9 10  1  0  0  0
  5 10  1  0  0  0
 10 11  2  0  0  0
  2 11  1  0  0  0
  1 12  1  0  0  0
 13 14  1  0  0  0
M  END
> <minimizedAffinity>
-7.45785

$$$$
