CHEMBL433205


 25 27  0  0  0  0  0  0  0  0999 V2000
   29.0330   -2.9263   53.0794 N   0  0  0  0  0  0  0  0  0  0  0  0
   28.4341   -1.8577   53.2010 C   0  0  0  0  0  0  0  0  0  0  0  0
   27.1021   -1.8037   53.0720 C   0  0  0  0  0  0  0  0  0  0  0  0
   26.4522   -0.5584   53.2240 C   0  0  0  0  0  0  0  0  0  0  0  0
   27.1937    0.4938   53.4897 C   0  0  0  0  0  0  0  0  0  0  0  0
   26.6499    1.7575   53.6525 C   0  0  0  0  0  0  0  0  0  0  0  0
   27.4665    2.7265   53.7528 N   0  0  0  0  0  0  0  0  0  0  0  0
   28.8973    2.5010   53.7705 C   0  0  0  0  0  0  0  0  0  0  0  0
   29.3798    1.3560   53.7065 N   0  0  0  0  0  0  0  0  0  0  0  0
   28.6192    0.3699   53.5643 C   0  0  0  0  0  0  0  0  0  0  0  0
   29.1994   -0.7633   53.4374 C   0  0  0  0  0  0  0  0  0  0  0  0
   28.5288   -3.7249   52.8896 H   0  0  0  0  0  0  0  0  0  0  0  0
   30.0920   -3.0542   53.1352 H   0  0  0  0  0  0  0  0  0  0  0  0
   25.2184    2.0724   53.7080 N   0  0  0  0  0  0  0  0  0  0  0  0
   24.8335    2.3328   54.6525 H   0  0  0  0  0  0  0  0  0  0  0  0
   24.1772    1.7489   52.6990 C   0  0  0  0  0  0  0  0  0  0  0  0
   23.1204    0.9026   52.8642 C   0  0  0  0  0  0  0  0  0  0  0  0
   22.1267    0.7651   51.6991 C   0  0  0  0  0  0  0  0  0  0  0  0
   22.3073    1.4629   50.5725 C   0  0  0  0  0  0  0  0  0  0  0  0
   23.4212    2.3478   50.4141 C   0  0  0  0  0  0  0  0  0  0  0  0
   24.3045    2.4975   51.3868 C   0  0  0  0  0  0  0  0  0  0  0  0
   23.5962    3.1220   49.1036 C   0  0  0  0  0  0  0  0  0  0  0  0
   23.1753    2.3280   48.0608 F   0  0  0  0  0  0  0  0  0  0  0  0
   22.8410    4.2516   49.1665 F   0  0  0  0  0  0  0  0  0  0  0  0
   24.9344    3.3699   48.9187 F   0  0  0  0  0  0  0  0  0  0  0  0
  1  2  1  0  0  0
  2  3  2  0  0  0
  3  4  1  0  0  0
  4  5  2  0  0  0
  5  6  1  0  0  0
  6 14  1  0  0  0
 14 16  1  0  0  0
 16 17  2  0  0  0
 17 18  1  0  0  0
 18 19  2  0  0  0
 19 20  1  0  0  0
 20 21  2  0  0  0
 16 21  1  0  0  0
 20 22  1  0  0  0
 22 23  1  0  0  0
 22 24  1  0  0  0
 22 25  1  0  0  0
  6  7  2  0  0  0
  7  8  1  0  0  0
  8  9  2  0  0  0
  9 10  1  0  0  0
  5 10  1  0  0  0
 10 11  2  0  0  0
  2 11  1  0  0  0
  1 12  1  0  0  0
  1 13  1  0  0  0
 14 15  1  0  0  0
M  END
> <minimizedAffinity>
-8.50274

$$$$
