CHEMBL91914


 26 28  0  0  0  0  0  0  0  0999 V2000
   27.7684    1.2751   53.9036 C   0  0  0  0  0  0  0  0  0  0  0  0
   27.1753    2.1956   53.1673 C   0  0  0  0  0  0  0  0  0  0  0  0
   25.7639    2.1607   52.8601 C   0  0  0  0  0  0  0  0  0  0  0  0
   25.0033    1.1778   53.3204 C   0  0  0  0  0  0  0  0  0  0  0  0
   23.5137    1.1132   53.0140 C   0  0  0  0  0  0  0  0  0  0  0  0
   22.8656    0.1281   53.5022 N   0  0  0  0  0  0  0  0  0  0  0  0
   23.5151   -0.9250   54.3376 C   0  0  0  0  0  0  0  0  0  0  0  0
   24.7658   -0.8863   54.6049 N   0  0  0  0  0  0  0  0  0  0  0  0
   25.6270    0.1292   54.1470 C   0  0  0  0  0  0  0  0  0  0  0  0
   26.9566    0.1630   54.4360 C   0  0  0  0  0  0  0  0  0  0  0  0
   21.8852    0.0588   53.3180 Xx  0  0  0  0  0  0  0  0  0  0  0  0
   25.1523   -1.6160   55.1691 Xx  0  0  0  0  0  0  0  0  0  0  0  0
   29.8118    2.4776   54.7962 O   0  0  0  0  0  0  0  0  0  0  0  0
   29.2036    1.5000   54.0933 N   0  0  0  0  0  0  0  0  0  0  0  0
   29.8858    0.7136   53.5529 O   0  0  0  0  0  0  0  0  0  0  0  0
   30.8809    0.7828   53.6231 Xx  0  0  0  0  0  0  0  0  0  0  0  0
   29.4722   -0.0261   53.0220 Xx  0  0  0  0  0  0  0  0  0  0  0  0
   30.7472    2.5108   54.8398 H   0  0  0  0  0  0  0  0  0  0  0  0
   22.8886    2.1715   52.1808 N   0  0  0  0  0  0  0  0  0  0  0  0
   22.6256    3.0726   52.6415 H   0  0  0  0  0  0  0  0  0  0  0  0
   22.6134    2.0377   50.7461 C   0  0  0  0  0  0  0  0  0  0  0  0
   23.2832    2.8542   49.9228 C   0  0  0  0  0  0  0  0  0  0  0  0
   23.0788    2.7973   48.4835 C   0  0  0  0  0  0  0  0  0  0  0  0
   22.2214    1.9323   47.9549 C   0  0  0  0  0  0  0  0  0  0  0  0
   21.4622    1.0180   48.7901 C   0  0  0  0  0  0  0  0  0  0  0  0
   21.6275    1.0441   50.1288 C   0  0  0  0  0  0  0  0  0  0  0  0
 13 14  1  0  0  0
 14 15  2  0  0  0
 14  1  1  0  0  0
  1  2  2  0  0  0
  2  3  1  0  0  0
  3  4  2  0  0  0
  4  5  1  0  0  0
  5 19  1  0  0  0
 19 21  1  0  0  0
 21 22  2  0  0  0
 22 23  1  0  0  0
 23 24  2  0  0  0
 24 25  1  0  0  0
 25 26  2  0  0  0
 21 26  1  0  0  0
  5  6  2  0  0  0
  6  7  1  0  0  0
  7  8  2  0  0  0
  8  9  1  0  0  0
  4  9  1  0  0  0
  9 10  2  0  0  0
  1 10  1  0  0  0
 19 20  1  0  0  0
 15 16  1  0  0  0
 15 17  1  0  0  0
  6 11  1  0  0  0
  8 12  1  0  0  0
 13 18  1  0  0  0
M  END
> <minimizedAffinity>
-7.51315

$$$$
