CHEMBL366580


 23 26  0  0  0  0  0  0  0  0999 V2000
   24.8092    1.0594   52.7314 C   0  0  0  0  0  0  0  0  0  0  0  0
   24.6965    2.3301   53.0978 N   0  0  0  0  0  0  0  0  0  0  0  0
   25.6882    2.9800   53.6941 C   0  0  0  0  0  0  0  0  0  0  0  0
   26.8432    2.3801   53.9505 N   0  0  0  0  0  0  0  0  0  0  0  0
   27.0349    1.1129   53.6160 C   0  0  0  0  0  0  0  0  0  0  0  0
   28.2618    0.5137   53.9007 C   0  0  0  0  0  0  0  0  0  0  0  0
   28.4025   -0.8096   53.5283 C   0  0  0  0  0  0  0  0  0  0  0  0
   29.4716   -1.6724   53.6663 C   0  0  0  0  0  0  0  0  0  0  0  0
   29.0501   -2.8244   53.1300 N   0  0  0  0  0  0  0  0  0  0  0  0
   27.8498   -2.7393   52.6898 N   0  0  0  0  0  0  0  0  0  0  0  0
   27.4080   -1.5108   52.9143 C   0  0  0  0  0  0  0  0  0  0  0  0
   26.1787   -0.9359   52.6208 C   0  0  0  0  0  0  0  0  0  0  0  0
   26.0085    0.3999   52.9858 C   0  0  0  0  0  0  0  0  0  0  0  0
   29.5979   -3.6408   53.0798 H   0  0  0  0  0  0  0  0  0  0  0  0
   23.7290    0.3701   52.0878 N   0  0  0  0  0  0  0  0  0  0  0  0
   23.8126    0.1741   51.0393 H   0  0  0  0  0  0  0  0  0  0  0  0
   18.4438   -0.0570   51.9682 Br  0  0  0  0  0  0  0  0  0  0  0  0
   20.1349   -0.3116   52.7969 C   0  0  0  0  0  0  0  0  0  0  0  0
   20.2014   -0.9224   54.0434 C   0  0  0  0  0  0  0  0  0  0  0  0
   21.4338   -1.1112   54.6536 C   0  0  0  0  0  0  0  0  0  0  0  0
   22.5917   -0.6880   54.0139 C   0  0  0  0  0  0  0  0  0  0  0  0
   22.5387   -0.0748   52.7652 C   0  0  0  0  0  0  0  0  0  0  0  0
   21.2988    0.1108   52.1600 C   0  0  0  0  0  0  0  0  0  0  0  0
 17 18  1  0  0  0
 18 19  2  0  0  0
 19 20  1  0  0  0
 20 21  2  0  0  0
 21 22  1  0  0  0
 22 15  1  0  0  0
 15  1  1  0  0  0
  1  2  2  0  0  0
  2  3  1  0  0  0
  3  4  2  0  0  0
  4  5  1  0  0  0
  5  6  2  0  0  0
  6  7  1  0  0  0
  7  8  2  0  0  0
  8  9  1  0  0  0
  9 10  1  0  0  0
 10 11  2  0  0  0
  7 11  1  0  0  0
 11 12  1  0  0  0
 12 13  2  0  0  0
  1 13  1  0  0  0
  5 13  1  0  0  0
 22 23  2  0  0  0
 18 23  1  0  0  0
 15 16  1  0  0  0
  9 14  1  0  0  0
M  END
> <minimizedAffinity>
-8.44187

$$$$
