CHEMBL329672


 19 21  0  0  0  0  0  0  0  0999 V2000
   26.5873    0.8978   52.8352 C   0  0  0  0  0  0  0  0  0  0  0  0
   26.9643    2.0847   53.1174 N   0  0  0  0  0  0  0  0  0  0  0  0
   28.3568    2.3791   53.5976 C   0  0  0  0  0  0  0  0  0  0  0  0
   29.2118    1.4343   53.7376 N   0  0  0  0  0  0  0  0  0  0  0  0
   28.9102    0.1209   53.4617 C   0  0  0  0  0  0  0  0  0  0  0  0
   29.8296   -0.8401   53.6197 C   0  0  0  0  0  0  0  0  0  0  0  0
   29.4878   -2.2385   53.3194 C   0  0  0  0  0  0  0  0  0  0  0  0
   28.2554   -2.5124   52.8927 C   0  0  0  0  0  0  0  0  0  0  0  0
   27.2588   -1.4591   52.7230 C   0  0  0  0  0  0  0  0  0  0  0  0
   27.5705   -0.1981   52.9949 C   0  0  0  0  0  0  0  0  0  0  0  0
   25.2297    0.6204   52.3683 N   0  0  0  0  0  0  0  0  0  0  0  0
   24.9973    0.7752   51.3581 H   0  0  0  0  0  0  0  0  0  0  0  0
   20.2071    0.5403   53.3185 Cl  0  0  0  0  0  0  0  0  0  0  0  0
   21.8058    0.0564   53.7444 C   0  0  0  0  0  0  0  0  0  0  0  0
   21.9829   -0.7093   54.8101 C   0  0  0  0  0  0  0  0  0  0  0  0
   23.2936   -1.1383   55.2057 C   0  0  0  0  0  0  0  0  0  0  0  0
   24.3636   -0.7536   54.4774 C   0  0  0  0  0  0  0  0  0  0  0  0
   24.1629    0.1320   53.2441 C   0  0  0  0  0  0  0  0  0  0  0  0
   22.9177    0.4930   52.9352 C   0  0  0  0  0  0  0  0  0  0  0  0
 13 14  1  0  0  0
 14 15  2  0  0  0
 15 16  1  0  0  0
 16 17  2  0  0  0
 17 18  1  0  0  0
 18 11  1  0  0  0
 11  1  1  0  0  0
  1  2  2  0  0  0
  2  3  1  0  0  0
  3  4  2  0  0  0
  4  5  1  0  0  0
  5  6  2  0  0  0
  6  7  1  0  0  0
  7  8  2  0  0  0
  8  9  1  0  0  0
  9 10  2  0  0  0
  1 10  1  0  0  0
  5 10  1  0  0  0
 18 19  2  0  0  0
 14 19  1  0  0  0
 11 12  1  0  0  0
M  END
> <minimizedAffinity>
-7.87366

$$$$
