CHEMBL90013


 24 26  0  0  0  0  0  0  0  0999 V2000
   23.5121   -0.6787   53.9027 C   0  0  0  0  0  0  0  0  0  0  0  0
   22.5719   -1.1620   54.7194 C   0  0  0  0  0  0  0  0  0  0  0  0
   21.2784   -1.0449   54.3793 C   0  0  0  0  0  0  0  0  0  0  0  0
   20.9811   -0.4565   53.2503 C   0  0  0  0  0  0  0  0  0  0  0  0
   19.7374   -0.3522   52.9387 C   0  0  0  0  0  0  0  0  0  0  0  0
   19.4308    0.2218   51.8359 N   0  0  0  0  0  0  0  0  0  0  0  0
   20.5111    0.7391   50.9689 C   0  0  0  0  0  0  0  0  0  0  0  0
   21.6991    0.6233   51.2968 N   0  0  0  0  0  0  0  0  0  0  0  0
   21.9629    0.0510   52.3924 C   0  0  0  0  0  0  0  0  0  0  0  0
   23.1852   -0.0555   52.7061 C   0  0  0  0  0  0  0  0  0  0  0  0
   18.4732    0.3188   51.5645 Xx  0  0  0  0  0  0  0  0  0  0  0  0
   22.4302    0.9731   50.7109 Xx  0  0  0  0  0  0  0  0  0  0  0  0
   25.3306   -0.6617   55.5733 C   0  0  0  0  0  0  0  0  0  0  0  0
   24.7352   -0.7695   54.1868 N   0  0  0  0  0  0  0  0  0  0  0  0
   26.6087   -0.7196   52.7041 C   0  0  0  0  0  0  0  0  0  0  0  0
   18.8129   -0.9084   53.8927 N   0  0  0  0  0  0  0  0  0  0  0  0
   18.9257   -0.5961   54.8915 H   0  0  0  0  0  0  0  0  0  0  0  0
   17.7903   -1.8428   53.4925 C   0  0  0  0  0  0  0  0  0  0  0  0
   17.8475   -3.1374   53.8313 C   0  0  0  0  0  0  0  0  0  0  0  0
   16.7776   -4.0561   53.3988 C   0  0  0  0  0  0  0  0  0  0  0  0
   15.7570   -3.6008   52.6734 C   0  0  0  0  0  0  0  0  0  0  0  0
   15.6940   -2.2019   52.3068 C   0  0  0  0  0  0  0  0  0  0  0  0
   14.2795   -1.4762   51.2793 Br  0  0  0  0  0  0  0  0  0  0  0  0
   16.6498   -1.3762   52.6919 C   0  0  0  0  0  0  0  0  0  0  0  0
 13 14  1  0  0  0
 14 15  1  0  0  0
 14  1  1  0  0  0
  1  2  2  0  0  0
  2  3  1  0  0  0
  3  4  2  0  0  0
  4  5  1  0  0  0
  5 16  1  0  0  0
 16 18  1  0  0  0
 18 19  2  0  0  0
 19 20  1  0  0  0
 20 21  2  0  0  0
 21 22  1  0  0  0
 22 23  1  0  0  0
 22 24  2  0  0  0
 18 24  1  0  0  0
  5  6  2  0  0  0
  6  7  1  0  0  0
  7  8  2  0  0  0
  8  9  1  0  0  0
  4  9  1  0  0  0
  9 10  2  0  0  0
  1 10  1  0  0  0
 16 17  1  0  0  0
  6 11  1  0  0  0
  8 12  1  0  0  0
M  END
> <minimizedAffinity>
-7.36558

$$$$
