CHEMBL553523


 23 25  0  0  0  0  0  0  0  0999 V2000
   27.6661    0.8574   53.4675 C   0  0  0  0  0  0  0  0  0  0  0  0
   27.0534    0.0126   54.2592 C   0  0  0  0  0  0  0  0  0  0  0  0
   25.7427   -0.1248   54.3090 C   0  0  0  0  0  0  0  0  0  0  0  0
   25.3364   -1.0107   55.0901 N   0  0  0  0  0  0  0  0  0  0  0  0
   24.0633   -1.2957   55.1772 C   0  0  0  0  0  0  0  0  0  0  0  0
   23.2204   -0.7089   54.4035 N   0  0  0  0  0  0  0  0  0  0  0  0
   23.5881    0.2977   53.4405 C   0  0  0  0  0  0  0  0  0  0  0  0
   24.8981    0.6414   53.4305 C   0  0  0  0  0  0  0  0  0  0  0  0
   25.5489    1.6992   52.5929 C   0  0  0  0  0  0  0  0  0  0  0  0
   26.8819    1.8637   52.5164 C   0  0  0  0  0  0  0  0  0  0  0  0
   29.4580   -0.5738   53.5324 C   0  0  0  0  0  0  0  0  0  0  0  0
   28.9149    0.6207   53.6894 O   0  0  0  0  0  0  0  0  0  0  0  0
   22.3645    0.7907   52.6068 N   0  0  0  0  0  0  0  0  0  0  0  0
   21.1118    0.6706   53.3942 C   0  0  0  0  0  0  0  0  0  0  0  0
   22.2688    1.2543   51.1645 C   0  0  0  0  0  0  0  0  0  0  0  0
   21.5064    0.5370   50.3145 C   0  0  0  0  0  0  0  0  0  0  0  0
   21.3585    0.9147   48.9217 C   0  0  0  0  0  0  0  0  0  0  0  0
   21.9669    1.9931   48.4556 C   0  0  0  0  0  0  0  0  0  0  0  0
   22.8004    2.7926   49.3194 C   0  0  0  0  0  0  0  0  0  0  0  0
   23.4751    4.0228   48.7795 C   0  0  0  0  0  0  0  0  0  0  0  0
   22.9737    2.4480   50.5848 C   0  0  0  0  0  0  0  0  0  0  0  0
   27.3310    3.0155   51.4783 O   0  0  0  0  0  0  0  0  0  0  0  0
   26.7235    3.4617   50.2279 C   0  0  0  0  0  0  0  0  0  0  0  0
 11 12  1  0  0  0
 12  1  1  0  0  0
  1  2  2  0  0  0
  2  3  1  0  0  0
  3  4  2  0  0  0
  4  5  1  0  0  0
  5  6  2  0  0  0
  6  7  1  0  0  0
  7 13  1  0  0  0
 13 14  1  0  0  0
 13 15  1  0  0  0
 15 16  2  0  0  0
 16 17  1  0  0  0
 17 18  2  0  0  0
 18 19  1  0  0  0
 19 20  1  0  0  0
 19 21  2  0  0  0
 15 21  1  0  0  0
  7  8  2  0  0  0
  3  8  1  0  0  0
  8  9  1  0  0  0
  9 10  2  0  0  0
  1 10  1  0  0  0
 10 22  1  0  0  0
 22 23  1  0  0  0
M  END
> <minimizedAffinity>
-7.78366

$$$$
