CHEMBL92174


 23 25  0  0  0  0  0  0  0  0999 V2000
   20.1061   -0.2860   52.8236 C   0  0  0  0  0  0  0  0  0  0  0  0
   20.6153   -0.7644   53.9318 C   0  0  0  0  0  0  0  0  0  0  0  0
   21.8952   -0.7967   54.1938 C   0  0  0  0  0  0  0  0  0  0  0  0
   22.1871   -1.3029   55.2997 N   0  0  0  0  0  0  0  0  0  0  0  0
   23.4317   -1.4315   55.6776 C   0  0  0  0  0  0  0  0  0  0  0  0
   24.3779   -1.0795   54.8836 N   0  0  0  0  0  0  0  0  0  0  0  0
   24.1452   -0.5184   53.5756 C   0  0  0  0  0  0  0  0  0  0  0  0
   22.8528   -0.3337   53.2314 C   0  0  0  0  0  0  0  0  0  0  0  0
   22.3232    0.2980   51.9619 C   0  0  0  0  0  0  0  0  0  0  0  0
   21.0019    0.3544   51.6700 C   0  0  0  0  0  0  0  0  0  0  0  0
   17.9481   -1.2441   53.2609 C   0  0  0  0  0  0  0  0  0  0  0  0
   18.8045   -0.2840   52.5819 O   0  0  0  0  0  0  0  0  0  0  0  0
   25.4536   -0.2241   52.8205 N   0  0  0  0  0  0  0  0  0  0  0  0
   25.3826    0.5694   52.1200 H   0  0  0  0  0  0  0  0  0  0  0  0
   26.8171   -0.8041   52.9513 C   0  0  0  0  0  0  0  0  0  0  0  0
   27.2498   -2.0765   52.7752 C   0  0  0  0  0  0  0  0  0  0  0  0
   28.7097   -2.4041   52.9889 C   0  0  0  0  0  0  0  0  0  0  0  0
   29.5475   -1.4431   53.3618 C   0  0  0  0  0  0  0  0  0  0  0  0
   29.0646   -0.0945   53.5667 C   0  0  0  0  0  0  0  0  0  0  0  0
   27.7813    0.1926   53.3713 C   0  0  0  0  0  0  0  0  0  0  0  0
   27.1513    1.9437   53.6477 Br  0  0  0  0  0  0  0  0  0  0  0  0
   20.6655    1.0423   50.2477 O   0  0  0  0  0  0  0  0  0  0  0  0
   19.7765    2.1733   49.9085 C   0  0  0  0  0  0  0  0  0  0  0  0
 11 12  1  0  0  0
 12  1  1  0  0  0
  1  2  2  0  0  0
  2  3  1  0  0  0
  3  4  2  0  0  0
  4  5  1  0  0  0
  5  6  2  0  0  0
  6  7  1  0  0  0
  7 13  1  0  0  0
 13 15  1  0  0  0
 15 16  2  0  0  0
 16 17  1  0  0  0
 17 18  2  0  0  0
 18 19  1  0  0  0
 19 20  2  0  0  0
 15 20  1  0  0  0
 20 21  1  0  0  0
  7  8  2  0  0  0
  3  8  1  0  0  0
  8  9  1  0  0  0
  9 10  2  0  0  0
  1 10  1  0  0  0
 10 22  1  0  0  0
 22 23  1  0  0  0
 13 14  1  0  0  0
M  END
> <minimizedAffinity>
-7.78387

$$$$
