CHEMBL289959


 18 20  0  0  0  0  0  0  0  0999 V2000
   26.3251    0.8527   52.8197 C   0  0  0  0  0  0  0  0  0  0  0  0
   26.7278    2.0283   53.1341 N   0  0  0  0  0  0  0  0  0  0  0  0
   28.1153    2.2950   53.6221 C   0  0  0  0  0  0  0  0  0  0  0  0
   28.9583    1.3369   53.7424 N   0  0  0  0  0  0  0  0  0  0  0  0
   28.6418    0.0334   53.4355 C   0  0  0  0  0  0  0  0  0  0  0  0
   29.5482   -0.9441   53.5730 C   0  0  0  0  0  0  0  0  0  0  0  0
   29.1859   -2.3303   53.2385 C   0  0  0  0  0  0  0  0  0  0  0  0
   27.9504   -2.5767   52.8025 C   0  0  0  0  0  0  0  0  0  0  0  0
   26.9685   -1.5058   52.6554 C   0  0  0  0  0  0  0  0  0  0  0  0
   27.2968   -0.2568   52.9575 C   0  0  0  0  0  0  0  0  0  0  0  0
   24.9404    0.5775   52.3313 N   0  0  0  0  0  0  0  0  0  0  0  0
   24.7542    0.6709   51.3061 H   0  0  0  0  0  0  0  0  0  0  0  0
   23.8258    0.1857   53.1931 C   0  0  0  0  0  0  0  0  0  0  0  0
   22.6315    0.7284   52.9256 C   0  0  0  0  0  0  0  0  0  0  0  0
   21.4647    0.3984   53.7282 C   0  0  0  0  0  0  0  0  0  0  0  0
   21.5604   -0.4496   54.7453 C   0  0  0  0  0  0  0  0  0  0  0  0
   22.8265   -1.0736   55.0893 C   0  0  0  0  0  0  0  0  0  0  0  0
   23.9291   -0.7886   54.3638 C   0  0  0  0  0  0  0  0  0  0  0  0
 11 13  1  0  0  0
 13 14  2  0  0  0
 14 15  1  0  0  0
 15 16  2  0  0  0
 16 17  1  0  0  0
 17 18  2  0  0  0
 13 18  1  0  0  0
 11  1  1  0  0  0
  1  2  2  0  0  0
  2  3  1  0  0  0
  3  4  2  0  0  0
  4  5  1  0  0  0
  5  6  2  0  0  0
  6  7  1  0  0  0
  7  8  2  0  0  0
  8  9  1  0  0  0
  9 10  2  0  0  0
  1 10  1  0  0  0
  5 10  1  0  0  0
 11 12  1  0  0  0
M  END
> <minimizedAffinity>
-7.50797

$$$$
