CHEMBL1080815


 20 22  0  0  0  0  0  0  0  0999 V2000
   23.8706   -0.2319   53.4201 C   0  0  0  0  0  0  0  0  0  0  0  0
   24.1614   -0.7917   54.5399 N   0  0  0  0  0  0  0  0  0  0  0  0
   23.1086   -1.3706   55.4409 C   0  0  0  0  0  0  0  0  0  0  0  0
   21.8692   -1.3265   55.1216 N   0  0  0  0  0  0  0  0  0  0  0  0
   21.4186   -0.7448   53.9299 C   0  0  0  0  0  0  0  0  0  0  0  0
   20.1092   -0.7197   53.6337 C   0  0  0  0  0  0  0  0  0  0  0  0
   19.6425   -0.1062   52.3785 C   0  0  0  0  0  0  0  0  0  0  0  0
   20.5385    0.4214   51.5451 C   0  0  0  0  0  0  0  0  0  0  0  0
   19.9830    1.1424   50.0687 Cl  0  0  0  0  0  0  0  0  0  0  0  0
   21.9953    0.3928   51.8761 C   0  0  0  0  0  0  0  0  0  0  0  0
   22.4114   -0.1661   53.0180 C   0  0  0  0  0  0  0  0  0  0  0  0
   24.9536    0.3212   52.5738 N   0  0  0  0  0  0  0  0  0  0  0  0
   24.6990    0.7316   51.6381 H   0  0  0  0  0  0  0  0  0  0  0  0
   29.2001   -2.4459   53.1859 Cl  0  0  0  0  0  0  0  0  0  0  0  0
   28.3995   -0.9213   53.2662 C   0  0  0  0  0  0  0  0  0  0  0  0
   29.0828    0.1426   53.6593 C   0  0  0  0  0  0  0  0  0  0  0  0
   28.4628    1.4336   53.7431 C   0  0  0  0  0  0  0  0  0  0  0  0
   27.1588    1.5636   53.4146 C   0  0  0  0  0  0  0  0  0  0  0  0
   26.3663    0.3332   52.9595 C   0  0  0  0  0  0  0  0  0  0  0  0
   27.0079   -0.8333   52.9058 C   0  0  0  0  0  0  0  0  0  0  0  0
 14 15  1  0  0  0
 15 16  2  0  0  0
 16 17  1  0  0  0
 17 18  2  0  0  0
 18 19  1  0  0  0
 19 12  1  0  0  0
 12  1  1  0  0  0
  1  2  2  0  0  0
  2  3  1  0  0  0
  3  4  2  0  0  0
  4  5  1  0  0  0
  5  6  2  0  0  0
  6  7  1  0  0  0
  7  8  2  0  0  0
  8  9  1  0  0  0
  8 10  1  0  0  0
 10 11  2  0  0  0
  1 11  1  0  0  0
  5 11  1  0  0  0
 19 20  2  0  0  0
 15 20  1  0  0  0
 12 13  1  0  0  0
M  END
> <minimizedAffinity>
-7.83162

$$$$
CHEMBL116308


 21 23  0  0  0  0  0  0  0  0999 V2000
   27.7978   -1.2032   53.2288 C   0  0  0  0  0  0  0  0  0  0  0  0
   29.1209   -1.2529   53.2895 C   0  0  0  0  0  0  0  0  0  0  0  0
   29.9804   -0.0722   53.5552 C   0  0  0  0  0  0  0  0  0  0  0  0
   29.4432    1.1372   53.7595 C   0  0  0  0  0  0  0  0  0  0  0  0
   27.9528    1.3036   53.7009 C   0  0  0  0  0  0  0  0  0  0  0  0
   27.4537    2.5229   53.8875 N   0  0  0  0  0  0  0  0  0  0  0  0
   26.1423    2.7832   53.8318 C   0  0  0  0  0  0  0  0  0  0  0  0
   25.3226    1.7484   53.5542 N   0  0  0  0  0  0  0  0  0  0  0  0
   25.7292    0.4824   53.3605 C   0  0  0  0  0  0  0  0  0  0  0  0
   27.1097    0.2133   53.4400 C   0  0  0  0  0  0  0  0  0  0  0  0
   27.1145   -2.5164   52.9623 N   0  0  0  0  0  0  0  0  0  0  0  0
   26.7056   -2.7640   51.8417 O   0  0  0  0  0  0  0  0  0  0  0  0
   24.7588   -0.5958   53.0636 N   0  0  0  0  0  0  0  0  0  0  0  0
   25.1169   -1.4639   52.5787 H   0  0  0  0  0  0  0  0  0  0  0  0
   23.3010   -0.5528   53.2468 C   0  0  0  0  0  0  0  0  0  0  0  0
   22.8802   -1.1055   54.4555 C   0  0  0  0  0  0  0  0  0  0  0  0
   21.5389   -1.1920   54.7830 C   0  0  0  0  0  0  0  0  0  0  0  0
   20.5852   -0.7277   53.8951 C   0  0  0  0  0  0  0  0  0  0  0  0
   20.9677   -0.1692   52.6856 C   0  0  0  0  0  0  0  0  0  0  0  0
   19.5471    0.4380   51.5075 Br  0  0  0  0  0  0  0  0  0  0  0  0
   22.3277   -0.0678   52.3476 C   0  0  0  0  0  0  0  0  0  0  0  0
 11 12  2  0  0  0
 11  1  1  0  0  0
  1  2  2  0  0  0
  2  3  1  0  0  0
  3  4  2  0  0  0
  4  5  1  0  0  0
  5  6  2  0  0  0
  6  7  1  0  0  0
  7  8  2  0  0  0
  8  9  1  0  0  0
  9 13  1  0  0  0
 13 15  1  0  0  0
 15 16  2  0  0  0
 16 17  1  0  0  0
 17 18  2  0  0  0
 18 19  1  0  0  0
 19 20  1  0  0  0
 19 21  2  0  0  0
 15 21  1  0  0  0
  9 10  2  0  0  0
  1 10  1  0  0  0
  5 10  1  0  0  0
 13 14  1  0  0  0
M  END
> <minimizedAffinity>
-7.73817

$$$$
CHEMBL117697


 20 22  0  0  0  0  0  0  0  0999 V2000
   25.2345    0.5201   52.3435 N   0  0  0  0  0  0  0  0  0  0  0  0
   25.0236    0.6335   51.3245 H   0  0  0  0  0  0  0  0  0  0  0  0
   26.5980    0.8217   52.8212 C   0  0  0  0  0  0  0  0  0  0  0  0
   26.9721    2.0129   53.1000 N   0  0  0  0  0  0  0  0  0  0  0  0
   28.3573    2.3185   53.5853 C   0  0  0  0  0  0  0  0  0  0  0  0
   29.2165    1.3794   53.7359 N   0  0  0  0  0  0  0  0  0  0  0  0
   28.9237    0.0626   53.4665 C   0  0  0  0  0  0  0  0  0  0  0  0
   29.8471   -0.8931   53.6354 C   0  0  0  0  0  0  0  0  0  0  0  0
   29.5129   -2.2950   53.3413 C   0  0  0  0  0  0  0  0  0  0  0  0
   28.2840   -2.5773   52.9093 C   0  0  0  0  0  0  0  0  0  0  0  0
   27.2833   -1.5297   52.7278 C   0  0  0  0  0  0  0  0  0  0  0  0
   27.5874   -0.2661   52.9938 C   0  0  0  0  0  0  0  0  0  0  0  0
   21.7647    0.0241   53.6665 C   0  0  0  0  0  0  0  0  0  0  0  0
   21.9334   -0.7110   54.7692 C   0  0  0  0  0  0  0  0  0  0  0  0
   23.2430   -1.1237   55.1921 C   0  0  0  0  0  0  0  0  0  0  0  0
   24.3222   -0.7663   54.4684 C   0  0  0  0  0  0  0  0  0  0  0  0
   24.1485    0.0683   53.2134 C   0  0  0  0  0  0  0  0  0  0  0  0
   22.9112    0.4231   52.8679 C   0  0  0  0  0  0  0  0  0  0  0  0
   19.4204   -0.5221   53.2939 C   0  0  0  0  0  0  0  0  0  0  0  0
   20.4892    0.4519   53.2148 O   0  0  0  0  0  0  0  0  0  0  0  0
 19 20  1  0  0  0
 20 13  1  0  0  0
 13 14  2  0  0  0
 14 15  1  0  0  0
 15 16  2  0  0  0
 16 17  1  0  0  0
 17  1  1  0  0  0
  1  3  1  0  0  0
  3  4  2  0  0  0
  4  5  1  0  0  0
  5  6  2  0  0  0
  6  7  1  0  0  0
  7  8  2  0  0  0
  8  9  1  0  0  0
  9 10  2  0  0  0
 10 11  1  0  0  0
 11 12  2  0  0  0
  3 12  1  0  0  0
  7 12  1  0  0  0
 17 18  2  0  0  0
 13 18  1  0  0  0
  1  2  1  0  0  0
M  END
> <minimizedAffinity>
-7.68308

$$$$
CHEMBL119033


 21 23  0  0  0  0  0  0  0  0999 V2000
   26.3696   -0.5882   53.0538 C   0  0  0  0  0  0  0  0  0  0  0  0
   26.8985   -1.7919   52.8466 C   0  0  0  0  0  0  0  0  0  0  0  0
   28.3075   -2.1197   52.9491 C   0  0  0  0  0  0  0  0  0  0  0  0
   29.1803   -1.1798   53.2733 C   0  0  0  0  0  0  0  0  0  0  0  0
   28.7521    0.2034   53.5341 C   0  0  0  0  0  0  0  0  0  0  0  0
   29.6370    1.0462   53.8373 N   0  0  0  0  0  0  0  0  0  0  0  0
   29.3329    2.3579   54.0962 C   0  0  0  0  0  0  0  0  0  0  0  0
   28.1264    2.7572   54.0329 N   0  0  0  0  0  0  0  0  0  0  0  0
   27.0349    1.9244   53.7053 C   0  0  0  0  0  0  0  0  0  0  0  0
   27.3158    0.6028   53.4427 C   0  0  0  0  0  0  0  0  0  0  0  0
   23.9691   -0.5695   53.8286 C   0  0  0  0  0  0  0  0  0  0  0  0
   24.9667   -0.6775   52.8598 O   0  0  0  0  0  0  0  0  0  0  0  0
   25.6937    2.5446   53.6736 N   0  0  0  0  0  0  0  0  0  0  0  0
   25.2378    2.7513   54.5222 H   0  0  0  0  0  0  0  0  0  0  0  0
   25.0154    2.8621   52.4134 C   0  0  0  0  0  0  0  0  0  0  0  0
   25.6945    2.8105   51.2601 C   0  0  0  0  0  0  0  0  0  0  0  0
   25.0229    3.1268   49.9942 C   0  0  0  0  0  0  0  0  0  0  0  0
   23.7363    3.4671   49.9805 C   0  0  0  0  0  0  0  0  0  0  0  0
   22.9827    3.5302   51.2078 C   0  0  0  0  0  0  0  0  0  0  0  0
   21.1449    4.0129   51.2201 Br  0  0  0  0  0  0  0  0  0  0  0  0
   23.5693    3.2494   52.3538 C   0  0  0  0  0  0  0  0  0  0  0  0
 11 12  1  0  0  0
 12  1  1  0  0  0
  1  2  2  0  0  0
  2  3  1  0  0  0
  3  4  2  0  0  0
  4  5  1  0  0  0
  5  6  2  0  0  0
  6  7  1  0  0  0
  7  8  2  0  0  0
  8  9  1  0  0  0
  9 13  1  0  0  0
 13 15  1  0  0  0
 15 16  2  0  0  0
 16 17  1  0  0  0
 17 18  2  0  0  0
 18 19  1  0  0  0
 19 20  1  0  0  0
 19 21  2  0  0  0
 15 21  1  0  0  0
  9 10  2  0  0  0
  1 10  1  0  0  0
  5 10  1  0  0  0
 13 14  1  0  0  0
M  END
> <minimizedAffinity>
-7.30668

$$$$
CHEMBL1277620


 24 26  0  0  0  0  0  0  0  0999 V2000
   27.8342    1.1394   53.6326 C   0  0  0  0  0  0  0  0  0  0  0  0
   27.2506    0.2822   54.4498 C   0  0  0  0  0  0  0  0  0  0  0  0
   25.9456   -0.0086   54.3797 C   0  0  0  0  0  0  0  0  0  0  0  0
   25.4989   -0.8627   55.1826 N   0  0  0  0  0  0  0  0  0  0  0  0
   24.2151   -1.2300   55.1268 C   0  0  0  0  0  0  0  0  0  0  0  0
   23.4454   -0.7529   54.2037 N   0  0  0  0  0  0  0  0  0  0  0  0
   23.9004    0.1989   53.2247 C   0  0  0  0  0  0  0  0  0  0  0  0
   25.1574    0.6033   53.3606 C   0  0  0  0  0  0  0  0  0  0  0  0
   25.7303    1.6084   52.5187 C   0  0  0  0  0  0  0  0  0  0  0  0
   27.0111    1.9372   52.5243 C   0  0  0  0  0  0  0  0  0  0  0  0
   29.8734    0.0979   53.6926 C   0  0  0  0  0  0  0  0  0  0  0  0
   29.0713    1.1259   53.9712 O   0  0  0  0  0  0  0  0  0  0  0  0
   22.8823    0.6584   52.1364 N   0  0  0  0  0  0  0  0  0  0  0  0
   23.2826    1.2780   51.3843 H   0  0  0  0  0  0  0  0  0  0  0  0
   21.3639    0.4246   51.9788 C   0  0  0  0  0  0  0  0  0  0  0  0
   20.4429   -0.0525   52.8635 C   0  0  0  0  0  0  0  0  0  0  0  0
   19.0075   -0.2144   52.4632 C   0  0  0  0  0  0  0  0  0  0  0  0
   18.6257    0.1369   51.2436 C   0  0  0  0  0  0  0  0  0  0  0  0
   16.8050   -0.0684   50.7181 Br  0  0  0  0  0  0  0  0  0  0  0  0
   19.6148    0.6892   50.3123 C   0  0  0  0  0  0  0  0  0  0  0  0
   20.8951    0.8114   50.6816 C   0  0  0  0  0  0  0  0  0  0  0  0
   21.7984    1.3121   49.8432 F   0  0  0  0  0  0  0  0  0  0  0  0
   27.3163    3.0148   51.3999 O   0  0  0  0  0  0  0  0  0  0  0  0
   26.5326    3.3711   50.2210 C   0  0  0  0  0  0  0  0  0  0  0  0
 11 12  1  0  0  0
 12  1  1  0  0  0
  1  2  2  0  0  0
  2  3  1  0  0  0
  3  4  2  0  0  0
  4  5  1  0  0  0
  5  6  2  0  0  0
  6  7  1  0  0  0
  7 13  1  0  0  0
 13 15  1  0  0  0
 15 16  2  0  0  0
 16 17  1  0  0  0
 17 18  2  0  0  0
 18 19  1  0  0  0
 18 20  1  0  0  0
 20 21  2  0  0  0
 15 21  1  0  0  0
 21 22  1  0  0  0
  7  8  2  0  0  0
  3  8  1  0  0  0
  8  9  1  0  0  0
  9 10  2  0  0  0
  1 10  1  0  0  0
 10 23  1  0  0  0
 23 24  1  0  0  0
 13 14  1  0  0  0
M  END
> <minimizedAffinity>
-7.67283

$$$$
CHEMBL136492


 21 23  0  0  0  0  0  0  0  0999 V2000
   24.8525   -0.3036   54.2417 C   0  0  0  0  0  0  0  0  0  0  0  0
   24.7650   -1.0505   55.2854 N   0  0  0  0  0  0  0  0  0  0  0  0
   23.5010   -1.6004   55.7768 C   0  0  0  0  0  0  0  0  0  0  0  0
   22.4168   -1.3700   55.1480 N   0  0  0  0  0  0  0  0  0  0  0  0
   22.3719   -0.5815   53.8983 C   0  0  0  0  0  0  0  0  0  0  0  0
   21.1806   -0.3799   53.1877 C   0  0  0  0  0  0  0  0  0  0  0  0
   21.1590    0.3590   51.9920 C   0  0  0  0  0  0  0  0  0  0  0  0
   22.3436    0.9100   51.4802 C   0  0  0  0  0  0  0  0  0  0  0  0
   22.3679    1.7249   50.1665 N   0  0  0  0  0  0  0  0  0  0  0  0
   23.5248    0.6923   52.2098 C   0  0  0  0  0  0  0  0  0  0  0  0
   23.5532   -0.0351   53.4123 C   0  0  0  0  0  0  0  0  0  0  0  0
   21.5285    1.8777   49.6315 H   0  0  0  0  0  0  0  0  0  0  0  0
   23.2767    2.1164   49.8150 H   0  0  0  0  0  0  0  0  0  0  0  0
   26.2248    1.7849   53.8429 C   0  0  0  0  0  0  0  0  0  0  0  0
   26.1979    0.3111   53.9420 N   0  0  0  0  0  0  0  0  0  0  0  0
   27.3724   -0.4634   53.6674 C   0  0  0  0  0  0  0  0  0  0  0  0
   27.2443   -1.6850   53.0049 C   0  0  0  0  0  0  0  0  0  0  0  0
   28.3573   -2.4770   52.7638 C   0  0  0  0  0  0  0  0  0  0  0  0
   29.6054   -2.0523   53.1876 C   0  0  0  0  0  0  0  0  0  0  0  0
   29.7544   -0.8418   53.8446 C   0  0  0  0  0  0  0  0  0  0  0  0
   28.6366   -0.0396   54.0854 C   0  0  0  0  0  0  0  0  0  0  0  0
 14 15  1  0  0  0
 15 16  1  0  0  0
 16 17  2  0  0  0
 17 18  1  0  0  0
 18 19  2  0  0  0
 19 20  1  0  0  0
 20 21  2  0  0  0
 16 21  1  0  0  0
 15  1  1  0  0  0
  1  2  2  0  0  0
  2  3  1  0  0  0
  3  4  2  0  0  0
  4  5  1  0  0  0
  5  6  2  0  0  0
  6  7  1  0  0  0
  7  8  2  0  0  0
  8  9  1  0  0  0
  8 10  1  0  0  0
 10 11  2  0  0  0
  1 11  1  0  0  0
  5 11  1  0  0  0
  9 12  1  0  0  0
  9 13  1  0  0  0
M  END
> <minimizedAffinity>
-7.62211

$$$$
CHEMBL153170


 23 26  0  0  0  0  0  0  0  0999 V2000
   25.5610    0.5458   53.2898 C   0  0  0  0  0  0  0  0  0  0  0  0
   25.1140    1.7843   53.4579 N   0  0  0  0  0  0  0  0  0  0  0  0
   25.9209    2.7998   53.7429 C   0  0  0  0  0  0  0  0  0  0  0  0
   27.2279    2.6172   53.8739 N   0  0  0  0  0  0  0  0  0  0  0  0
   27.7597    1.4132   53.7226 C   0  0  0  0  0  0  0  0  0  0  0  0
   29.1413    1.2562   53.8674 C   0  0  0  0  0  0  0  0  0  0  0  0
   29.7325    0.0046   53.7151 C   0  0  0  0  0  0  0  0  0  0  0  0
   28.9035   -1.0628   53.4179 C   0  0  0  0  0  0  0  0  0  0  0  0
   29.2182   -2.3330   53.2275 N   0  0  0  0  0  0  0  0  0  0  0  0
   28.0583   -2.9410   52.9720 C   0  0  0  0  0  0  0  0  0  0  0  0
   27.0274   -2.0935   52.9960 N   0  0  0  0  0  0  0  0  0  0  0  0
   27.5479   -0.9096   53.2757 C   0  0  0  0  0  0  0  0  0  0  0  0
   26.9341    0.3298   53.4230 C   0  0  0  0  0  0  0  0  0  0  0  0
   30.1133   -2.7411   53.2660 H   0  0  0  0  0  0  0  0  0  0  0  0
   24.6479   -0.5373   52.9792 N   0  0  0  0  0  0  0  0  0  0  0  0
   24.9898   -1.3134   52.4949 H   0  0  0  0  0  0  0  0  0  0  0  0
   19.7905    0.5587   51.2949 Br  0  0  0  0  0  0  0  0  0  0  0  0
   20.9898   -0.0943   52.6162 C   0  0  0  0  0  0  0  0  0  0  0  0
   20.4993   -0.5665   53.8258 C   0  0  0  0  0  0  0  0  0  0  0  0
   21.3808   -1.0423   54.7872 C   0  0  0  0  0  0  0  0  0  0  0  0
   22.7491   -1.0468   54.5416 C   0  0  0  0  0  0  0  0  0  0  0  0
   23.2502   -0.5739   53.3278 C   0  0  0  0  0  0  0  0  0  0  0  0
   22.3577   -0.0994   52.3718 C   0  0  0  0  0  0  0  0  0  0  0  0
 17 18  1  0  0  0
 18 19  2  0  0  0
 19 20  1  0  0  0
 20 21  2  0  0  0
 21 22  1  0  0  0
 22 15  1  0  0  0
 15  1  1  0  0  0
  1  2  2  0  0  0
  2  3  1  0  0  0
  3  4  2  0  0  0
  4  5  1  0  0  0
  5  6  2  0  0  0
  6  7  1  0  0  0
  7  8  2  0  0  0
  8  9  1  0  0  0
  9 10  1  0  0  0
 10 11  2  0  0  0
 11 12  1  0  0  0
  8 12  1  0  0  0
 12 13  2  0  0  0
  1 13  1  0  0  0
  5 13  1  0  0  0
 22 23  2  0  0  0
 18 23  1  0  0  0
 15 16  1  0  0  0
  9 14  1  0  0  0
M  END
> <minimizedAffinity>
-8.33618

$$$$
CHEMBL155100


 23 26  0  0  0  0  0  0  0  0999 V2000
   27.0561    1.8904   52.0194 C   0  0  0  0  0  0  0  0  0  0  0  0
   28.1188    2.5916   52.3942 N   0  0  0  0  0  0  0  0  0  0  0  0
   28.6277    2.5300   53.6321 C   0  0  0  0  0  0  0  0  0  0  0  0
   28.0731    1.7466   54.5488 N   0  0  0  0  0  0  0  0  0  0  0  0
   27.0122    1.0226   54.2388 C   0  0  0  0  0  0  0  0  0  0  0  0
   26.4685    1.0725   52.9581 C   0  0  0  0  0  0  0  0  0  0  0  0
   25.3534    0.3215   52.6056 C   0  0  0  0  0  0  0  0  0  0  0  0
   24.7588   -0.5025   53.5463 C   0  0  0  0  0  0  0  0  0  0  0  0
   25.3115   -0.5401   54.8128 C   0  0  0  0  0  0  0  0  0  0  0  0
   24.9381   -1.2291   55.8607 N   0  0  0  0  0  0  0  0  0  0  0  0
   25.7817   -0.9333   56.8530 C   0  0  0  0  0  0  0  0  0  0  0  0
   26.6993   -0.0491   56.4340 N   0  0  0  0  0  0  0  0  0  0  0  0
   26.4056    0.1953   55.1624 C   0  0  0  0  0  0  0  0  0  0  0  0
   24.1762   -1.8507   55.9088 H   0  0  0  0  0  0  0  0  0  0  0  0
   26.5033    1.9625   50.6604 N   0  0  0  0  0  0  0  0  0  0  0  0
   26.4317    1.1124   50.1100 H   0  0  0  0  0  0  0  0  0  0  0  0
   27.6844    6.5150   48.1512 Br  0  0  0  0  0  0  0  0  0  0  0  0
   26.4650    5.2782   48.9215 C   0  0  0  0  0  0  0  0  0  0  0  0
   25.1035    5.5489   48.9136 C   0  0  0  0  0  0  0  0  0  0  0  0
   24.2132    4.6442   49.4769 C   0  0  0  0  0  0  0  0  0  0  0  0
   24.6870    3.4680   50.0484 C   0  0  0  0  0  0  0  0  0  0  0  0
   26.0527    3.1880   50.0608 C   0  0  0  0  0  0  0  0  0  0  0  0
   26.9368    4.1032   49.4925 C   0  0  0  0  0  0  0  0  0  0  0  0
 17 18  1  0  0  0
 18 19  2  0  0  0
 19 20  1  0  0  0
 20 21  2  0  0  0
 21 22  1  0  0  0
 22 15  1  0  0  0
 15  1  1  0  0  0
  1  2  2  0  0  0
  2  3  1  0  0  0
  3  4  2  0  0  0
  4  5  1  0  0  0
  5  6  2  0  0  0
  1  6  1  0  0  0
  6  7  1  0  0  0
  7  8  2  0  0  0
  8  9  1  0  0  0
  9 10  1  0  0  0
 10 11  1  0  0  0
 11 12  2  0  0  0
 12 13  1  0  0  0
  5 13  1  0  0  0
  9 13  2  0  0  0
 22 23  2  0  0  0
 18 23  1  0  0  0
 15 16  1  0  0  0
 10 14  1  0  0  0
M  END
> <minimizedAffinity>
-8.15135

$$$$
CHEMBL1688539


 20 22  0  0  0  0  0  0  0  0999 V2000
   24.9103    0.1651   52.6744 N   0  0  0  0  0  0  0  0  0  0  0  0
   24.7244    0.8084   51.8747 H   0  0  0  0  0  0  0  0  0  0  0  0
   23.8062   -0.3435   53.4831 C   0  0  0  0  0  0  0  0  0  0  0  0
   24.0568   -0.9132   54.5958 N   0  0  0  0  0  0  0  0  0  0  0  0
   22.9509   -1.4507   55.4590 C   0  0  0  0  0  0  0  0  0  0  0  0
   21.7261   -1.3458   55.0901 N   0  0  0  0  0  0  0  0  0  0  0  0
   21.3610   -0.7452   53.9032 C   0  0  0  0  0  0  0  0  0  0  0  0
   20.0743   -0.6507   53.5453 C   0  0  0  0  0  0  0  0  0  0  0  0
   19.7136   -0.0044   52.2726 C   0  0  0  0  0  0  0  0  0  0  0  0
   20.6922    0.4739   51.5037 C   0  0  0  0  0  0  0  0  0  0  0  0
   22.0910    0.3654   51.9036 C   0  0  0  0  0  0  0  0  0  0  0  0
   22.4086   -0.2173   53.0501 C   0  0  0  0  0  0  0  0  0  0  0  0
   30.4467   -0.9489   53.8395 F   0  0  0  0  0  0  0  0  0  0  0  0
   29.1272   -0.7268   53.5472 C   0  0  0  0  0  0  0  0  0  0  0  0
   28.3957   -1.6915   53.0195 C   0  0  0  0  0  0  0  0  0  0  0  0
   26.9190   -1.4254   52.6984 C   0  0  0  0  0  0  0  0  0  0  0  0
   26.3637   -0.2109   52.9521 C   0  0  0  0  0  0  0  0  0  0  0  0
   27.2476    0.8251   53.5462 C   0  0  0  0  0  0  0  0  0  0  0  0
   28.5292    0.5701   53.8168 C   0  0  0  0  0  0  0  0  0  0  0  0
   29.5134    1.8129   54.5082 Cl  0  0  0  0  0  0  0  0  0  0  0  0
 13 14  1  0  0  0
 14 15  2  0  0  0
 15 16  1  0  0  0
 16 17  2  0  0  0
 17  1  1  0  0  0
  1  3  1  0  0  0
  3  4  2  0  0  0
  4  5  1  0  0  0
  5  6  2  0  0  0
  6  7  1  0  0  0
  7  8  2  0  0  0
  8  9  1  0  0  0
  9 10  2  0  0  0
 10 11  1  0  0  0
 11 12  2  0  0  0
  3 12  1  0  0  0
  7 12  1  0  0  0
 17 18  1  0  0  0
 18 19  2  0  0  0
 14 19  1  0  0  0
 19 20  1  0  0  0
  1  2  1  0  0  0
M  END
> <minimizedAffinity>
-7.97594

$$$$
CHEMBL172652


 23 26  0  0  0  0  0  0  0  0999 V2000
   24.5667    1.0779   52.6993 C   0  0  0  0  0  0  0  0  0  0  0  0
   24.4231    2.3554   53.0567 N   0  0  0  0  0  0  0  0  0  0  0  0
   25.4011    3.0396   53.6728 C   0  0  0  0  0  0  0  0  0  0  0  0
   26.5575    2.4486   53.9464 N   0  0  0  0  0  0  0  0  0  0  0  0
   26.7693    1.1743   53.6174 C   0  0  0  0  0  0  0  0  0  0  0  0
   27.9891    0.5654   53.9106 C   0  0  0  0  0  0  0  0  0  0  0  0
   28.1466   -0.7612   53.5427 C   0  0  0  0  0  0  0  0  0  0  0  0
   29.1669   -1.5716   53.6902 N   0  0  0  0  0  0  0  0  0  0  0  0
   28.8349   -2.7021   53.1890 N   0  0  0  0  0  0  0  0  0  0  0  0
   27.6480   -2.6964   52.7130 N   0  0  0  0  0  0  0  0  0  0  0  0
   27.1742   -1.4736   52.9196 C   0  0  0  0  0  0  0  0  0  0  0  0
   25.9540   -0.8965   52.6161 C   0  0  0  0  0  0  0  0  0  0  0  0
   25.7655    0.4423   52.9753 C   0  0  0  0  0  0  0  0  0  0  0  0
   30.0300   -1.3512   54.1095 H   0  0  0  0  0  0  0  0  0  0  0  0
   23.5018    0.3289   52.0270 N   0  0  0  0  0  0  0  0  0  0  0  0
   23.6356    0.1146   51.0294 H   0  0  0  0  0  0  0  0  0  0  0  0
   18.2434    0.2568   51.5974 Br  0  0  0  0  0  0  0  0  0  0  0  0
   19.8449   -0.2085   52.5086 C   0  0  0  0  0  0  0  0  0  0  0  0
   19.7848   -0.9446   53.6811 C   0  0  0  0  0  0  0  0  0  0  0  0
   20.9494   -1.2881   54.3519 C   0  0  0  0  0  0  0  0  0  0  0  0
   22.1941   -0.8880   53.8401 C   0  0  0  0  0  0  0  0  0  0  0  0
   22.2596   -0.1428   52.6535 C   0  0  0  0  0  0  0  0  0  0  0  0
   21.0735    0.1883   52.0003 C   0  0  0  0  0  0  0  0  0  0  0  0
 17 18  1  0  0  0
 18 19  2  0  0  0
 19 20  1  0  0  0
 20 21  2  0  0  0
 21 22  1  0  0  0
 22 15  1  0  0  0
 15  1  1  0  0  0
  1  2  2  0  0  0
  2  3  1  0  0  0
  3  4  2  0  0  0
  4  5  1  0  0  0
  5  6  2  0  0  0
  6  7  1  0  0  0
  7  8  1  0  0  0
  8  9  1  0  0  0
  9 10  2  0  0  0
 10 11  1  0  0  0
  7 11  2  0  0  0
 11 12  1  0  0  0
 12 13  2  0  0  0
  1 13  1  0  0  0
  5 13  1  0  0  0
 22 23  2  0  0  0
 18 23  1  0  0  0
 15 16  1  0  0  0
  8 14  1  0  0  0
M  END
> <minimizedAffinity>
-8.28520

$$$$
CHEMBL173498


 23 26  0  0  0  0  0  0  0  0999 V2000
   24.0517   -0.2597   53.4914 C   0  0  0  0  0  0  0  0  0  0  0  0
   24.5066   -0.7911   54.5682 N   0  0  0  0  0  0  0  0  0  0  0  0
   23.6501   -1.4569   55.5736 C   0  0  0  0  0  0  0  0  0  0  0  0
   22.4405   -1.5467   55.4455 N   0  0  0  0  0  0  0  0  0  0  0  0
   21.8642   -0.9990   54.3096 C   0  0  0  0  0  0  0  0  0  0  0  0
   20.5931   -1.1166   54.2172 C   0  0  0  0  0  0  0  0  0  0  0  0
   19.9184   -0.6129   53.1377 C   0  0  0  0  0  0  0  0  0  0  0  0
   18.7376   -0.8035   53.2000 N   0  0  0  0  0  0  0  0  0  0  0  0
   17.8777   -0.3606   52.1866 C   0  0  0  0  0  0  0  0  0  0  0  0
   18.3524    0.2901   51.1167 C   0  0  0  0  0  0  0  0  0  0  0  0
   19.7303    0.5259   51.0197 N   0  0  0  0  0  0  0  0  0  0  0  0
   20.5122    0.0817   52.0166 C   0  0  0  0  0  0  0  0  0  0  0  0
   22.0153    0.2128   52.1404 C   0  0  0  0  0  0  0  0  0  0  0  0
   22.6294   -0.3126   53.2448 C   0  0  0  0  0  0  0  0  0  0  0  0
   25.0520    0.3700   52.5864 N   0  0  0  0  0  0  0  0  0  0  0  0
   24.7639    0.5935   51.6010 H   0  0  0  0  0  0  0  0  0  0  0  0
   29.8665   -1.5807   53.4869 Br  0  0  0  0  0  0  0  0  0  0  0  0
   28.6781   -0.0958   53.3986 C   0  0  0  0  0  0  0  0  0  0  0  0
   29.1361    1.1176   53.6710 C   0  0  0  0  0  0  0  0  0  0  0  0
   28.2718    2.2725   53.6168 C   0  0  0  0  0  0  0  0  0  0  0  0
   26.9690    2.1151   53.2817 C   0  0  0  0  0  0  0  0  0  0  0  0
   26.4344    0.7108   52.9652 C   0  0  0  0  0  0  0  0  0  0  0  0
   27.2934   -0.3107   53.0360 C   0  0  0  0  0  0  0  0  0  0  0  0
 17 18  1  0  0  0
 18 19  2  0  0  0
 19 20  1  0  0  0
 20 21  2  0  0  0
 21 22  1  0  0  0
 22 15  1  0  0  0
 15  1  1  0  0  0
  1  2  2  0  0  0
  2  3  1  0  0  0
  3  4  2  0  0  0
  4  5  1  0  0  0
  5  6  2  0  0  0
  6  7  1  0  0  0
  7  8  2  0  0  0
  8  9  1  0  0  0
  9 10  2  0  0  0
 10 11  1  0  0  0
 11 12  2  0  0  0
  7 12  1  0  0  0
 12 13  1  0  0  0
 13 14  2  0  0  0
  1 14  1  0  0  0
  5 14  1  0  0  0
 22 23  2  0  0  0
 18 23  1  0  0  0
 15 16  1  0  0  0
M  END
> <minimizedAffinity>
-8.40954

$$$$
CHEMBL174426


 23 26  0  0  0  0  0  0  0  0999 V2000
   16.9532   -0.4657   52.4815 C   0  0  0  0  0  0  0  0  0  0  0  0
   18.1565    0.0112   51.7806 N   0  0  0  0  0  0  0  0  0  0  0  0
   18.0998    0.6381   50.5033 C   0  0  0  0  0  0  0  0  0  0  0  0
   19.2570    0.9828   50.0592 N   0  0  0  0  0  0  0  0  0  0  0  0
   20.1606    0.5249   51.1796 C   0  0  0  0  0  0  0  0  0  0  0  0
   21.4918    0.5829   51.3517 C   0  0  0  0  0  0  0  0  0  0  0  0
   22.0164   -0.0067   52.6554 C   0  0  0  0  0  0  0  0  0  0  0  0
   23.2921   -0.0494   53.0187 C   0  0  0  0  0  0  0  0  0  0  0  0
   23.5541   -0.6515   54.2907 N   0  0  0  0  0  0  0  0  0  0  0  0
   22.6472   -1.1337   55.0667 C   0  0  0  0  0  0  0  0  0  0  0  0
   21.3794   -1.1033   54.7300 N   0  0  0  0  0  0  0  0  0  0  0  0
   21.0465   -0.5899   53.6217 C   0  0  0  0  0  0  0  0  0  0  0  0
   19.7267   -0.5803   53.3157 C   0  0  0  0  0  0  0  0  0  0  0  0
   19.3418   -0.0567   52.1753 C   0  0  0  0  0  0  0  0  0  0  0  0
   24.4433    0.4845   52.1913 N   0  0  0  0  0  0  0  0  0  0  0  0
   24.2555    0.7084   51.1722 H   0  0  0  0  0  0  0  0  0  0  0  0
   25.7577    0.6874   52.7555 C   0  0  0  0  0  0  0  0  0  0  0  0
   26.0959    1.8743   53.2708 C   0  0  0  0  0  0  0  0  0  0  0  0
   27.4327    2.0709   53.8415 C   0  0  0  0  0  0  0  0  0  0  0  0
   28.3126    1.0719   53.8492 C   0  0  0  0  0  0  0  0  0  0  0  0
   27.9604   -0.2167   53.2954 C   0  0  0  0  0  0  0  0  0  0  0  0
   29.1860   -1.6669   53.2869 Br  0  0  0  0  0  0  0  0  0  0  0  0
   26.7619   -0.4029   52.7805 C   0  0  0  0  0  0  0  0  0  0  0  0
  1  2  1  0  0  0
  2  3  1  0  0  0
  3  4  2  0  0  0
  4  5  1  0  0  0
  5  6  2  0  0  0
  6  7  1  0  0  0
  7  8  2  0  0  0
  8 15  1  0  0  0
 15 17  1  0  0  0
 17 18  2  0  0  0
 18 19  1  0  0  0
 19 20  2  0  0  0
 20 21  1  0  0  0
 21 22  1  0  0  0
 21 23  2  0  0  0
 17 23  1  0  0  0
  8  9  1  0  0  0
  9 10  2  0  0  0
 10 11  1  0  0  0
 11 12  2  0  0  0
  7 12  1  0  0  0
 12 13  1  0  0  0
 13 14  2  0  0  0
  2 14  1  0  0  0
  5 14  1  0  0  0
 15 16  1  0  0  0
M  END
> <minimizedAffinity>
-7.74852

$$$$
CHEMBL176582


 23 26  0  0  0  0  0  0  0  0999 V2000
   27.4127    2.0727   52.5085 C   0  0  0  0  0  0  0  0  0  0  0  0
   26.7978    1.0804   53.4547 N   0  0  0  0  0  0  0  0  0  0  0  0
   27.4471    0.3538   54.4770 C   0  0  0  0  0  0  0  0  0  0  0  0
   26.6290   -0.4325   55.0899 N   0  0  0  0  0  0  0  0  0  0  0  0
   25.4911   -0.3572   54.6402 C   0  0  0  0  0  0  0  0  0  0  0  0
   24.5201   -1.0767   55.1382 C   0  0  0  0  0  0  0  0  0  0  0  0
   23.2874   -0.9560   54.5980 C   0  0  0  0  0  0  0  0  0  0  0  0
   22.3879   -1.6607   55.0884 N   0  0  0  0  0  0  0  0  0  0  0  0
   21.1958   -1.6047   54.6152 C   0  0  0  0  0  0  0  0  0  0  0  0
   20.8991   -0.8349   53.6198 N   0  0  0  0  0  0  0  0  0  0  0  0
   21.8428    0.0270   52.9533 C   0  0  0  0  0  0  0  0  0  0  0  0
   23.0868   -0.0140   53.4558 C   0  0  0  0  0  0  0  0  0  0  0  0
   24.2910    0.7689   52.9996 C   0  0  0  0  0  0  0  0  0  0  0  0
   25.4384    0.5539   53.6059 C   0  0  0  0  0  0  0  0  0  0  0  0
   21.1967    0.8522   51.7538 N   0  0  0  0  0  0  0  0  0  0  0  0
   20.1833    1.0815   51.9162 H   0  0  0  0  0  0  0  0  0  0  0  0
   21.7272    1.3838   50.4037 C   0  0  0  0  0  0  0  0  0  0  0  0
   21.3621    0.9928   49.1697 C   0  0  0  0  0  0  0  0  0  0  0  0
   21.9649    1.5833   47.9512 C   0  0  0  0  0  0  0  0  0  0  0  0
   22.8827    2.5381   48.0611 C   0  0  0  0  0  0  0  0  0  0  0  0
   23.3024    3.0123   49.3673 C   0  0  0  0  0  0  0  0  0  0  0  0
   24.6095    4.3949   49.4906 Br  0  0  0  0  0  0  0  0  0  0  0  0
   22.7744    2.4827   50.4783 C   0  0  0  0  0  0  0  0  0  0  0  0
  1  2  1  0  0  0
  2  3  1  0  0  0
  3  4  2  0  0  0
  4  5  1  0  0  0
  5  6  2  0  0  0
  6  7  1  0  0  0
  7  8  2  0  0  0
  8  9  1  0  0  0
  9 10  2  0  0  0
 10 11  1  0  0  0
 11 15  1  0  0  0
 15 17  1  0  0  0
 17 18  2  0  0  0
 18 19  1  0  0  0
 19 20  2  0  0  0
 20 21  1  0  0  0
 21 22  1  0  0  0
 21 23  2  0  0  0
 17 23  1  0  0  0
 11 12  2  0  0  0
  7 12  1  0  0  0
 12 13  1  0  0  0
 13 14  2  0  0  0
  2 14  1  0  0  0
  5 14  1  0  0  0
 15 16  1  0  0  0
M  END
> <minimizedAffinity>
-8.11348

$$$$
CHEMBL177053


 22 25  0  0  0  0  0  0  0  0999 V2000
   23.8294   -0.1790   53.4620 C   0  0  0  0  0  0  0  0  0  0  0  0
   24.2101   -0.7611   54.5390 N   0  0  0  0  0  0  0  0  0  0  0  0
   23.2133   -1.4264   55.4308 C   0  0  0  0  0  0  0  0  0  0  0  0
   22.0055   -1.4362   55.1612 N   0  0  0  0  0  0  0  0  0  0  0  0
   21.5960   -0.8763   54.1149 C   0  0  0  0  0  0  0  0  0  0  0  0
   20.3319   -0.9390   53.9215 C   0  0  0  0  0  0  0  0  0  0  0  0
   19.8400   -0.3691   52.8388 C   0  0  0  0  0  0  0  0  0  0  0  0
   18.5853   -0.4240   52.6345 N   0  0  0  0  0  0  0  0  0  0  0  0
   18.2236    0.1621   51.5551 C   0  0  0  0  0  0  0  0  0  0  0  0
   19.5526    0.8115   50.7691 S   0  0  0  0  0  0  0  0  0  0  0  0
   20.5671    0.2647   51.9366 C   0  0  0  0  0  0  0  0  0  0  0  0
   21.9714    0.3773   52.0784 C   0  0  0  0  0  0  0  0  0  0  0  0
   22.4770   -0.1955   53.1694 C   0  0  0  0  0  0  0  0  0  0  0  0
   24.7814    0.4775   52.5745 N   0  0  0  0  0  0  0  0  0  0  0  0
   24.4605    0.7896   51.6243 H   0  0  0  0  0  0  0  0  0  0  0  0
   29.5271   -1.6984   53.3665 Br  0  0  0  0  0  0  0  0  0  0  0  0
   28.3933   -0.1681   53.3135 C   0  0  0  0  0  0  0  0  0  0  0  0
   28.9017    1.0243   53.5905 C   0  0  0  0  0  0  0  0  0  0  0  0
   28.0821    2.2110   53.5631 C   0  0  0  0  0  0  0  0  0  0  0  0
   26.7724    2.1073   53.2496 C   0  0  0  0  0  0  0  0  0  0  0  0
   26.1792    0.7339   52.9288 C   0  0  0  0  0  0  0  0  0  0  0  0
   26.9938   -0.3243   52.9724 C   0  0  0  0  0  0  0  0  0  0  0  0
 16 17  1  0  0  0
 17 18  2  0  0  0
 18 19  1  0  0  0
 19 20  2  0  0  0
 20 21  1  0  0  0
 21 14  1  0  0  0
 14  1  1  0  0  0
  1  2  2  0  0  0
  2  3  1  0  0  0
  3  4  2  0  0  0
  4  5  1  0  0  0
  5  6  2  0  0  0
  6  7  1  0  0  0
  7  8  1  0  0  0
  8  9  2  0  0  0
  9 10  1  0  0  0
 10 11  1  0  0  0
  7 11  2  0  0  0
 11 12  1  0  0  0
 12 13  2  0  0  0
  1 13  1  0  0  0
  5 13  1  0  0  0
 21 22  2  0  0  0
 17 22  1  0  0  0
 14 15  1  0  0  0
M  END
> <minimizedAffinity>
-8.09348

$$$$
CHEMBL179451


 24 26  0  0  0  0  0  0  0  0999 V2000
   24.2286   -0.3378   53.5293 C   0  0  0  0  0  0  0  0  0  0  0  0
   24.9723   -0.5909   54.6958 C   0  0  0  0  0  0  0  0  0  0  0  0
   26.2092    0.0515   54.9121 C   0  0  0  0  0  0  0  0  0  0  0  0
   26.7373    0.9560   53.9801 C   0  0  0  0  0  0  0  0  0  0  0  0
   28.0371    1.6204   54.1993 N   0  0  0  0  0  0  0  0  0  0  0  0
   28.5260    2.4311   53.3408 C   0  0  0  0  0  0  0  0  0  0  0  0
   27.7915    2.7119   52.1239 N   0  0  0  0  0  0  0  0  0  0  0  0
   26.6436    2.2108   51.8116 C   0  0  0  0  0  0  0  0  0  0  0  0
   26.0109    1.2204   52.8177 C   0  0  0  0  0  0  0  0  0  0  0  0
   24.7769    0.5805   52.6024 C   0  0  0  0  0  0  0  0  0  0  0  0
   22.8490   -1.0354   53.2393 N   0  0  0  0  0  0  0  0  0  0  0  0
   22.6513   -1.3505   52.2635 H   0  0  0  0  0  0  0  0  0  0  0  0
   21.8256   -1.3071   54.2459 C   0  0  0  0  0  0  0  0  0  0  0  0
   20.9117    0.8608   53.0588 Cl  0  0  0  0  0  0  0  0  0  0  0  0
   21.0696   -0.0223   54.5495 C   0  0  0  0  0  0  0  0  0  0  0  0
   26.0111    2.6282   50.4674 N   0  0  0  0  0  0  0  0  0  0  0  0
   25.5626    1.8969   49.8693 H   0  0  0  0  0  0  0  0  0  0  0  0
   26.1187    3.9757   49.9961 C   0  0  0  0  0  0  0  0  0  0  0  0
   27.0674    4.3309   49.0386 C   0  0  0  0  0  0  0  0  0  0  0  0
   27.1643    5.6518   48.6104 C   0  0  0  0  0  0  0  0  0  0  0  0
   26.3179    6.6205   49.1363 C   0  0  0  0  0  0  0  0  0  0  0  0
   25.3750    6.2705   50.0881 C   0  0  0  0  0  0  0  0  0  0  0  0
   24.3019    7.4051   50.7805 Cl  0  0  0  0  0  0  0  0  0  0  0  0
   25.2843    4.9624   50.5076 C   0  0  0  0  0  0  0  0  0  0  0  0
 14 15  1  0  0  0
 15 13  1  0  0  0
 13 11  1  0  0  0
 11  1  1  0  0  0
  1  2  2  0  0  0
  2  3  1  0  0  0
  3  4  2  0  0  0
  4  5  1  0  0  0
  5  6  2  0  0  0
  6  7  1  0  0  0
  7  8  2  0  0  0
  8 16  1  0  0  0
 16 18  1  0  0  0
 18 19  2  0  0  0
 19 20  1  0  0  0
 20 21  2  0  0  0
 21 22  1  0  0  0
 22 23  1  0  0  0
 22 24  2  0  0  0
 18 24  1  0  0  0
  8  9  1  0  0  0
  4  9  1  0  0  0
  9 10  2  0  0  0
  1 10  1  0  0  0
 11 12  1  0  0  0
 16 17  1  0  0  0
M  END
> <minimizedAffinity>
-7.39172

$$$$
CHEMBL181617


 24 26  0  0  0  0  0  0  0  0999 V2000
   24.2019   -0.4417   53.5854 C   0  0  0  0  0  0  0  0  0  0  0  0
   24.8897   -0.7535   54.7117 C   0  0  0  0  0  0  0  0  0  0  0  0
   26.2710   -0.0564   54.9708 C   0  0  0  0  0  0  0  0  0  0  0  0
   26.7762    0.8431   54.0916 C   0  0  0  0  0  0  0  0  0  0  0  0
   28.0496    1.4948   54.3163 N   0  0  0  0  0  0  0  0  0  0  0  0
   28.5267    2.3428   53.4874 C   0  0  0  0  0  0  0  0  0  0  0  0
   27.7785    2.6884   52.2556 N   0  0  0  0  0  0  0  0  0  0  0  0
   26.6339    2.2150   51.8846 C   0  0  0  0  0  0  0  0  0  0  0  0
   26.0069    1.1711   52.8645 C   0  0  0  0  0  0  0  0  0  0  0  0
   24.8366    0.5717   52.6556 C   0  0  0  0  0  0  0  0  0  0  0  0
   22.8393   -1.0192   53.1645 N   0  0  0  0  0  0  0  0  0  0  0  0
   22.8335   -1.7281   52.4059 H   0  0  0  0  0  0  0  0  0  0  0  0
   21.5473   -0.6363   53.7599 C   0  0  0  0  0  0  0  0  0  0  0  0
   21.3837    0.1614   51.2610 Cl  0  0  0  0  0  0  0  0  0  0  0  0
   20.8254    0.3879   52.8922 C   0  0  0  0  0  0  0  0  0  0  0  0
   26.1378    2.8307   50.4860 N   0  0  0  0  0  0  0  0  0  0  0  0
   25.6734    2.1367   49.8904 H   0  0  0  0  0  0  0  0  0  0  0  0
   26.2184    4.2270   49.8723 C   0  0  0  0  0  0  0  0  0  0  0  0
   27.2469    4.4205   49.0335 C   0  0  0  0  0  0  0  0  0  0  0  0
   27.4558    5.7069   48.3675 C   0  0  0  0  0  0  0  0  0  0  0  0
   26.6264    6.7209   48.5785 C   0  0  0  0  0  0  0  0  0  0  0  0
   25.5010    6.5593   49.4772 C   0  0  0  0  0  0  0  0  0  0  0  0
   24.2845    8.0181   49.7984 Br  0  0  0  0  0  0  0  0  0  0  0  0
   25.3064    5.3895   50.0874 C   0  0  0  0  0  0  0  0  0  0  0  0
 14 15  1  0  0  0
 15 13  1  0  0  0
 13 11  1  0  0  0
 11  1  1  0  0  0
  1  2  2  0  0  0
  2  3  1  0  0  0
  3  4  2  0  0  0
  4  5  1  0  0  0
  5  6  2  0  0  0
  6  7  1  0  0  0
  7  8  2  0  0  0
  8 16  1  0  0  0
 16 18  1  0  0  0
 18 19  2  0  0  0
 19 20  1  0  0  0
 20 21  2  0  0  0
 21 22  1  0  0  0
 22 23  1  0  0  0
 22 24  2  0  0  0
 18 24  1  0  0  0
  8  9  1  0  0  0
  4  9  1  0  0  0
  9 10  2  0  0  0
  1 10  1  0  0  0
 11 12  1  0  0  0
 16 17  1  0  0  0
M  END
> <minimizedAffinity>
-7.44466

$$$$
CHEMBL1928712


 29 32  0  0  0  0  0  0  0  0999 V2000
   24.2945   -0.3313   53.7196 C   0  0  0  0  0  0  0  0  0  0  0  0
   25.0313   -0.7609   54.7840 C   0  0  0  0  0  0  0  0  0  0  0  0
   26.4562   -0.1409   55.0198 C   0  0  0  0  0  0  0  0  0  0  0  0
   26.9459    0.8165   54.1988 C   0  0  0  0  0  0  0  0  0  0  0  0
   28.2488    1.3750   54.4007 N   0  0  0  0  0  0  0  0  0  0  0  0
   28.7344    2.2643   53.6235 C   0  0  0  0  0  0  0  0  0  0  0  0
   27.9370    2.7678   52.4926 N   0  0  0  0  0  0  0  0  0  0  0  0
   26.7459    2.3931   52.1617 C   0  0  0  0  0  0  0  0  0  0  0  0
   26.1274    1.2817   53.0551 C   0  0  0  0  0  0  0  0  0  0  0  0
   24.9313    0.7295   52.8378 C   0  0  0  0  0  0  0  0  0  0  0  0
   22.8516   -0.7985   53.3073 N   0  0  0  0  0  0  0  0  0  0  0  0
   22.8011   -1.7235   52.8717 H   0  0  0  0  0  0  0  0  0  0  0  0
   21.6122   -0.0017   53.4998 C   0  0  0  0  0  0  0  0  0  0  0  0
   19.3780    2.9077   48.5609 Br  0  0  0  0  0  0  0  0  0  0  0  0
   20.0889    1.9972   50.0691 C   0  0  0  0  0  0  0  0  0  0  0  0
   19.5499    2.1854   51.2707 C   0  0  0  0  0  0  0  0  0  0  0  0
   20.0809    1.4987   52.4210 C   0  0  0  0  0  0  0  0  0  0  0  0
   21.1107    0.6748   52.2863 C   0  0  0  0  0  0  0  0  0  0  0  0
   21.7097    0.4635   50.9670 C   0  0  0  0  0  0  0  0  0  0  0  0
   21.2160    1.0994   49.9061 C   0  0  0  0  0  0  0  0  0  0  0  0
   26.1984    3.1835   50.9032 N   0  0  0  0  0  0  0  0  0  0  0  0
   26.9155    3.3469   50.1860 H   0  0  0  0  0  0  0  0  0  0  0  0
   24.8447    3.7646   50.5816 C   0  0  0  0  0  0  0  0  0  0  0  0
   24.0468    3.9462   51.6442 C   0  0  0  0  0  0  0  0  0  0  0  0
   22.7036    4.4999   51.5064 C   0  0  0  0  0  0  0  0  0  0  0  0
   22.2327    4.8455   50.3156 C   0  0  0  0  0  0  0  0  0  0  0  0
   23.0602    4.6618   49.1207 C   0  0  0  0  0  0  0  0  0  0  0  0
   22.4049    5.1743   47.3769 Br  0  0  0  0  0  0  0  0  0  0  0  0
   24.2850    4.1396   49.2357 C   0  0  0  0  0  0  0  0  0  0  0  0
 14 15  1  0  0  0
 15 16  2  0  0  0
 16 17  1  0  0  0
 17 18  2  0  0  0
 18 13  1  0  0  0
 13 11  1  0  0  0
 11  1  1  0  0  0
  1  2  2  0  0  0
  2  3  1  0  0  0
  3  4  2  0  0  0
  4  5  1  0  0  0
  5  6  2  0  0  0
  6  7  1  0  0  0
  7  8  2  0  0  0
  8 21  1  0  0  0
 21 23  1  0  0  0
 23 24  2  0  0  0
 24 25  1  0  0  0
 25 26  2  0  0  0
 26 27  1  0  0  0
 27 28  1  0  0  0
 27 29  2  0  0  0
 23 29  1  0  0  0
  8  9  1  0  0  0
  4  9  1  0  0  0
  9 10  2  0  0  0
  1 10  1  0  0  0
 18 19  1  0  0  0
 19 20  2  0  0  0
 15 20  1  0  0  0
 11 12  1  0  0  0
 21 22  1  0  0  0
M  END
> <minimizedAffinity>
-7.81845

$$$$
CHEMBL2018762


 30 32  0  0  0  0  0  0  0  0999 V2000
   25.5587    3.5891   49.7200 N   0  0  0  0  0  0  0  0  0  0  0  0
   24.6447    3.3646   49.2473 H   0  0  0  0  0  0  0  0  0  0  0  0
   26.0302    2.7984   50.9207 C   0  0  0  0  0  0  0  0  0  0  0  0
   27.2023    2.8695   51.5213 N   0  0  0  0  0  0  0  0  0  0  0  0
   27.4347    2.1401   52.8038 C   0  0  0  0  0  0  0  0  0  0  0  0
   26.5226    1.4985   53.3399 N   0  0  0  0  0  0  0  0  0  0  0  0
   25.3446    1.4463   52.7104 C   0  0  0  0  0  0  0  0  0  0  0  0
   24.3244    0.8026   53.3118 C   0  0  0  0  0  0  0  0  0  0  0  0
   23.0761    0.7226   52.7445 C   0  0  0  0  0  0  0  0  0  0  0  0
   22.7953    1.2484   51.4576 C   0  0  0  0  0  0  0  0  0  0  0  0
   23.8538    1.9176   50.8743 C   0  0  0  0  0  0  0  0  0  0  0  0
   25.0842    2.0401   51.4981 C   0  0  0  0  0  0  0  0  0  0  0  0
   22.4679    0.1407   53.6856 O   0  0  0  0  0  0  0  0  0  0  0  0
   21.7975   -0.5019   54.7361 C   0  0  0  0  0  0  0  0  0  0  0  0
   21.6188    1.3301   50.5310 O   0  0  0  0  0  0  0  0  0  0  0  0
   20.4941    1.4148   49.6488 C   0  0  0  0  0  0  0  0  0  0  0  0
   28.1688    5.9154   48.4153 C   0  0  0  0  0  0  0  0  0  0  0  0
   27.5118    4.7268   48.7414 C   0  0  0  0  0  0  0  0  0  0  0  0
   26.2607    4.7600   49.3565 C   0  0  0  0  0  0  0  0  0  0  0  0
   25.6701    5.9797   49.6265 C   0  0  0  0  0  0  0  0  0  0  0  0
   26.2821    7.1716   49.3159 C   0  0  0  0  0  0  0  0  0  0  0  0
   27.5276    7.1457   48.7200 C   0  0  0  0  0  0  0  0  0  0  0  0
   28.0178    8.5241   48.4855 C   0  0  0  0  0  0  0  0  0  0  0  0
   30.7499    5.6916   48.5157 C   0  0  0  0  0  0  0  0  0  0  0  0
   30.6826    5.7627   49.7886 O   0  0  0  0  0  0  0  0  0  0  0  0
   29.5072    5.7380   47.7752 N   0  0  0  0  0  0  0  0  0  0  0  0
   29.5621    5.5711   46.7543 H   0  0  0  0  0  0  0  0  0  0  0  0
   31.9778    5.5890   47.8372 O   0  0  0  0  0  0  0  0  0  0  0  0
   32.1008    3.4530   46.6588 C   0  0  0  0  0  0  0  0  0  0  0  0
   32.4249    4.2445   47.9173 C   0  0  0  0  0  0  0  0  0  0  0  0
 29 30  1  0  0  0
 30 28  1  0  0  0
 28 24  1  0  0  0
 24 25  2  0  0  0
 24 26  1  0  0  0
 26 17  1  0  0  0
 17 18  2  0  0  0
 18 19  1  0  0  0
 19  1  1  0  0  0
  1  3  1  0  0  0
  3  4  2  0  0  0
  4  5  1  0  0  0
  5  6  2  0  0  0
  6  7  1  0  0  0
  7  8  2  0  0  0
  8  9  1  0  0  0
  9 13  1  0  0  0
 13 14  1  0  0  0
  9 10  2  0  0  0
 10 15  1  0  0  0
 15 16  1  0  0  0
 10 11  1  0  0  0
 11 12  2  0  0  0
  3 12  1  0  0  0
  7 12  1  0  0  0
 19 20  2  0  0  0
 20 21  1  0  0  0
 21 22  2  0  0  0
 17 22  1  0  0  0
 22 23  1  0  0  0
 26 27  1  0  0  0
  1  2  1  0  0  0
M  END
> <minimizedAffinity>
-7.50034

$$$$
CHEMBL208594


 22 24  0  0  0  0  0  0  0  0999 V2000
   24.0502   -0.4141   53.6009 C   0  0  0  0  0  0  0  0  0  0  0  0
   24.8004   -0.6917   54.6956 C   0  0  0  0  0  0  0  0  0  0  0  0
   26.1708   -0.0052   54.8761 C   0  0  0  0  0  0  0  0  0  0  0  0
   26.6390    0.8681   53.9624 C   0  0  0  0  0  0  0  0  0  0  0  0
   27.9287    1.5064   54.1487 N   0  0  0  0  0  0  0  0  0  0  0  0
   28.3892    2.3351   53.3024 C   0  0  0  0  0  0  0  0  0  0  0  0
   27.6127    2.6630   52.1032 N   0  0  0  0  0  0  0  0  0  0  0  0
   26.4536    2.2020   51.7602 C   0  0  0  0  0  0  0  0  0  0  0  0
   25.8189    1.1853   52.7421 C   0  0  0  0  0  0  0  0  0  0  0  0
   24.6236    0.5932   52.5780 C   0  0  0  0  0  0  0  0  0  0  0  0
   21.5186   -0.3294   52.6820 C   0  0  0  0  0  0  0  0  0  0  0  0
   22.6797   -1.0467   53.3392 N   0  0  0  0  0  0  0  0  0  0  0  0
   22.5133   -2.0276   53.6216 H   0  0  0  0  0  0  0  0  0  0  0  0
   26.0074    2.8342   50.3927 N   0  0  0  0  0  0  0  0  0  0  0  0
   25.4076    2.1823   49.8769 H   0  0  0  0  0  0  0  0  0  0  0  0
   26.2133    4.0937   49.6687 C   0  0  0  0  0  0  0  0  0  0  0  0
   25.1092    4.8547   49.5407 C   0  0  0  0  0  0  0  0  0  0  0  0
   25.1497    6.1350   48.8483 C   0  0  0  0  0  0  0  0  0  0  0  0
   26.2859    6.5735   48.3291 C   0  0  0  0  0  0  0  0  0  0  0  0
   27.4835    5.7766   48.4540 C   0  0  0  0  0  0  0  0  0  0  0  0
   28.7844    6.2694   47.8633 C   0  0  0  0  0  0  0  0  0  0  0  0
   27.4635    4.5999   49.0869 C   0  0  0  0  0  0  0  0  0  0  0  0
 11 12  1  0  0  0
 12  1  1  0  0  0
  1  2  2  0  0  0
  2  3  1  0  0  0
  3  4  2  0  0  0
  4  5  1  0  0  0
  5  6  2  0  0  0
  6  7  1  0  0  0
  7  8  2  0  0  0
  8 14  1  0  0  0
 14 16  1  0  0  0
 16 17  2  0  0  0
 17 18  1  0  0  0
 18 19  2  0  0  0
 19 20  1  0  0  0
 20 21  1  0  0  0
 20 22  2  0  0  0
 16 22  1  0  0  0
  8  9  1  0  0  0
  4  9  1  0  0  0
  9 10  2  0  0  0
  1 10  1  0  0  0
 12 13  1  0  0  0
 14 15  1  0  0  0
M  END
> <minimizedAffinity>
-7.59459

$$$$
CHEMBL209343


 22 24  0  0  0  0  0  0  0  0999 V2000
   24.1168   -0.4249   53.6088 C   0  0  0  0  0  0  0  0  0  0  0  0
   24.8131   -0.7032   54.7395 C   0  0  0  0  0  0  0  0  0  0  0  0
   26.1902    0.0113   54.9708 C   0  0  0  0  0  0  0  0  0  0  0  0
   26.6837    0.8886   54.0632 C   0  0  0  0  0  0  0  0  0  0  0  0
   27.9507    1.5575   54.2610 N   0  0  0  0  0  0  0  0  0  0  0  0
   28.4134    2.3862   53.4038 C   0  0  0  0  0  0  0  0  0  0  0  0
   27.6572    2.6872   52.1650 N   0  0  0  0  0  0  0  0  0  0  0  0
   26.5158    2.1909   51.8156 C   0  0  0  0  0  0  0  0  0  0  0  0
   25.9062    1.1762   52.8330 C   0  0  0  0  0  0  0  0  0  0  0  0
   24.7386    0.5679   52.6511 C   0  0  0  0  0  0  0  0  0  0  0  0
   21.7073   -1.5672   54.0860 C   0  0  0  0  0  0  0  0  0  0  0  0
   22.7486   -1.0149   53.1837 N   0  0  0  0  0  0  0  0  0  0  0  0
   22.5531   -1.0239   52.1646 H   0  0  0  0  0  0  0  0  0  0  0  0
   26.0028    2.7505   50.3981 N   0  0  0  0  0  0  0  0  0  0  0  0
   25.4213    2.0766   49.8865 H   0  0  0  0  0  0  0  0  0  0  0  0
   26.2157    4.1001   49.6668 C   0  0  0  0  0  0  0  0  0  0  0  0
   25.1393    4.8989   49.6492 C   0  0  0  0  0  0  0  0  0  0  0  0
   25.1646    6.2091   48.9998 C   0  0  0  0  0  0  0  0  0  0  0  0
   26.2619    6.6540   48.4015 C   0  0  0  0  0  0  0  0  0  0  0  0
   27.4663    5.8395   48.3843 C   0  0  0  0  0  0  0  0  0  0  0  0
   28.9291    6.4247   47.5905 Cl  0  0  0  0  0  0  0  0  0  0  0  0
   27.4590    4.6389   48.9767 C   0  0  0  0  0  0  0  0  0  0  0  0
 11 12  1  0  0  0
 12  1  1  0  0  0
  1  2  2  0  0  0
  2  3  1  0  0  0
  3  4  2  0  0  0
  4  5  1  0  0  0
  5  6  2  0  0  0
  6  7  1  0  0  0
  7  8  2  0  0  0
  8 14  1  0  0  0
 14 16  1  0  0  0
 16 17  2  0  0  0
 17 18  1  0  0  0
 18 19  2  0  0  0
 19 20  1  0  0  0
 20 21  1  0  0  0
 20 22  2  0  0  0
 16 22  1  0  0  0
  8  9  1  0  0  0
  4  9  1  0  0  0
  9 10  2  0  0  0
  1 10  1  0  0  0
 12 13  1  0  0  0
 14 15  1  0  0  0
M  END
> <minimizedAffinity>
-7.53616

$$$$
CHEMBL2333985


 26 28  0  0  0  0  0  0  0  0999 V2000
   18.6230   -0.3831   52.3687 C   0  0  0  0  0  0  0  0  0  0  0  0
   19.1984   -0.9406   53.4094 C   0  0  0  0  0  0  0  0  0  0  0  0
   20.4899   -0.8885   53.6568 C   0  0  0  0  0  0  0  0  0  0  0  0
   20.8668   -1.4884   54.6899 N   0  0  0  0  0  0  0  0  0  0  0  0
   22.1455   -1.4919   55.0231 C   0  0  0  0  0  0  0  0  0  0  0  0
   23.0154   -0.8657   54.3145 N   0  0  0  0  0  0  0  0  0  0  0  0
   22.6762   -0.1426   53.1463 C   0  0  0  0  0  0  0  0  0  0  0  0
   21.3716   -0.1675   52.7798 C   0  0  0  0  0  0  0  0  0  0  0  0
   20.7672    0.4707   51.5257 C   0  0  0  0  0  0  0  0  0  0  0  0
   19.4472    0.4265   51.2494 C   0  0  0  0  0  0  0  0  0  0  0  0
   16.4026   -0.1531   51.8002 C   0  0  0  0  0  0  0  0  0  0  0  0
   17.3651   -0.6700   52.5485 O   0  0  0  0  0  0  0  0  0  0  0  0
   23.8665    0.5440   52.4218 N   0  0  0  0  0  0  0  0  0  0  0  0
   23.6428    1.1667   51.5931 H   0  0  0  0  0  0  0  0  0  0  0  0
   25.1264    0.4748   52.8681 C   0  0  0  0  0  0  0  0  0  0  0  0
   25.8168   -0.6472   52.6755 C   0  0  0  0  0  0  0  0  0  0  0  0
   27.1721   -0.6658   53.0346 C   0  0  0  0  0  0  0  0  0  0  0  0
   27.7170    0.4030   53.5748 C   0  0  0  0  0  0  0  0  0  0  0  0
   27.0217    1.5836   53.8694 C   0  0  0  0  0  0  0  0  0  0  0  0
   25.7566    1.6509   53.5399 C   0  0  0  0  0  0  0  0  0  0  0  0
   29.0251    0.3533   53.8263 C   0  0  0  0  0  0  0  0  0  0  0  0
   29.6301   -1.0213   53.4387 C   0  0  0  0  0  0  0  0  0  0  0  0
   29.2248    0.5124   55.1777 F   0  0  0  0  0  0  0  0  0  0  0  0
   29.6723    1.3417   53.1196 F   0  0  0  0  0  0  0  0  0  0  0  0
   19.0554    1.1899   49.8803 O   0  0  0  0  0  0  0  0  0  0  0  0
   19.8417    2.1604   49.0981 C   0  0  0  0  0  0  0  0  0  0  0  0
 11 12  1  0  0  0
 12  1  1  0  0  0
  1  2  2  0  0  0
  2  3  1  0  0  0
  3  4  2  0  0  0
  4  5  1  0  0  0
  5  6  2  0  0  0
  6  7  1  0  0  0
  7 13  1  0  0  0
 13 15  1  0  0  0
 15 16  2  0  0  0
 16 17  1  0  0  0
 17 18  2  0  0  0
 18 19  1  0  0  0
 19 20  2  0  0  0
 15 20  1  0  0  0
 18 21  1  0  0  0
 21 22  1  0  0  0
 21 23  1  0  0  0
 21 24  1  0  0  0
  7  8  2  0  0  0
  3  8  1  0  0  0
  8  9  1  0  0  0
  9 10  2  0  0  0
  1 10  1  0  0  0
 10 25  1  0  0  0
 25 26  1  0  0  0
 13 14  1  0  0  0
M  END
> <minimizedAffinity>
-7.78415

$$$$
CHEMBL2333986


 26 28  0  0  0  0  0  0  0  0999 V2000
   20.3135    0.4727   53.2160 C   0  0  0  0  0  0  0  0  0  0  0  0
   20.8901   -0.1406   54.2167 C   0  0  0  0  0  0  0  0  0  0  0  0
   22.1591   -0.4337   54.2738 C   0  0  0  0  0  0  0  0  0  0  0  0
   22.4918   -1.0292   55.3240 N   0  0  0  0  0  0  0  0  0  0  0  0
   23.7231   -1.3704   55.5325 C   0  0  0  0  0  0  0  0  0  0  0  0
   24.6094   -1.0650   54.6866 N   0  0  0  0  0  0  0  0  0  0  0  0
   24.3646   -0.3560   53.4541 C   0  0  0  0  0  0  0  0  0  0  0  0
   23.0627   -0.0463   53.2117 C   0  0  0  0  0  0  0  0  0  0  0  0
   22.4305    0.6359   51.9838 C   0  0  0  0  0  0  0  0  0  0  0  0
   21.1109    0.9221   51.9123 C   0  0  0  0  0  0  0  0  0  0  0  0
   18.6386   -0.9029   53.1508 C   0  0  0  0  0  0  0  0  0  0  0  0
   18.9686    0.3142   52.3913 O   0  0  0  0  0  0  0  0  0  0  0  0
   25.6239   -0.1326   52.7187 N   0  0  0  0  0  0  0  0  0  0  0  0
   25.4545    0.2926   51.7441 H   0  0  0  0  0  0  0  0  0  0  0  0
   27.0466   -0.4794   53.0017 C   0  0  0  0  0  0  0  0  0  0  0  0
   27.5919   -1.7159   52.9528 C   0  0  0  0  0  0  0  0  0  0  0  0
   29.0657   -1.9505   53.2414 C   0  0  0  0  0  0  0  0  0  0  0  0
   29.8258   -0.8917   53.5305 C   0  0  0  0  0  0  0  0  0  0  0  0
   29.2632    0.4687   53.5682 C   0  0  0  0  0  0  0  0  0  0  0  0
   27.9844    0.6955   53.3286 C   0  0  0  0  0  0  0  0  0  0  0  0
   27.5277    2.1933   53.3772 C   0  0  0  0  0  0  0  0  0  0  0  0
   27.3251    2.5754   52.1027 F   0  0  0  0  0  0  0  0  0  0  0  0
   26.3765    2.2571   54.1888 F   0  0  0  0  0  0  0  0  0  0  0  0
   28.5693    2.8852   53.8932 F   0  0  0  0  0  0  0  0  0  0  0  0
   20.6843    1.6324   50.5408 O   0  0  0  0  0  0  0  0  0  0  0  0
   20.2069    3.0102   50.2863 C   0  0  0  0  0  0  0  0  0  0  0  0
 11 12  1  0  0  0
 12  1  1  0  0  0
  1  2  2  0  0  0
  2  3  1  0  0  0
  3  4  2  0  0  0
  4  5  1  0  0  0
  5  6  2  0  0  0
  6  7  1  0  0  0
  7 13  1  0  0  0
 13 15  1  0  0  0
 15 16  2  0  0  0
 16 17  1  0  0  0
 17 18  2  0  0  0
 18 19  1  0  0  0
 19 20  2  0  0  0
 15 20  1  0  0  0
 20 21  1  0  0  0
 21 22  1  0  0  0
 21 23  1  0  0  0
 21 24  1  0  0  0
  7  8  2  0  0  0
  3  8  1  0  0  0
  8  9  1  0  0  0
  9 10  2  0  0  0
  1 10  1  0  0  0
 10 25  1  0  0  0
 25 26  1  0  0  0
 13 14  1  0  0  0
M  END
> <minimizedAffinity>
-8.31624

$$$$
CHEMBL2334001


 27 29  0  0  0  0  0  0  0  0999 V2000
   26.5821    1.0028   54.0626 C   0  0  0  0  0  0  0  0  0  0  0  0
   26.1475    2.2821   53.9914 C   0  0  0  0  0  0  0  0  0  0  0  0
   24.9267    2.6586   53.2868 C   0  0  0  0  0  0  0  0  0  0  0  0
   24.5145    3.8859   53.2179 N   0  0  0  0  0  0  0  0  0  0  0  0
   23.3436    4.2149   52.5287 C   0  0  0  0  0  0  0  0  0  0  0  0
   22.6517    3.2788   51.9417 N   0  0  0  0  0  0  0  0  0  0  0  0
   23.0820    1.9152   51.9991 C   0  0  0  0  0  0  0  0  0  0  0  0
   24.1920    1.5869   52.6530 C   0  0  0  0  0  0  0  0  0  0  0  0
   24.6947    0.1393   52.7463 C   0  0  0  0  0  0  0  0  0  0  0  0
   25.8296   -0.1550   53.4168 C   0  0  0  0  0  0  0  0  0  0  0  0
   29.0679    1.3228   54.2358 C   0  0  0  0  0  0  0  0  0  0  0  0
   27.7934    0.8274   54.7771 O   0  0  0  0  0  0  0  0  0  0  0  0
   22.2605    0.9064   51.3135 N   0  0  0  0  0  0  0  0  0  0  0  0
   22.5250    0.5846   50.3690 H   0  0  0  0  0  0  0  0  0  0  0  0
   20.9986    0.2943   51.9282 C   0  0  0  0  0  0  0  0  0  0  0  0
   20.9144   -0.3027   53.1489 C   0  0  0  0  0  0  0  0  0  0  0  0
   19.5721   -0.8807   53.6437 C   0  0  0  0  0  0  0  0  0  0  0  0
   18.5059   -0.7886   52.8716 C   0  0  0  0  0  0  0  0  0  0  0  0
   17.3077   -1.2965   53.2958 F   0  0  0  0  0  0  0  0  0  0  0  0
   18.6041   -0.1503   51.5735 C   0  0  0  0  0  0  0  0  0  0  0  0
   17.1855   -0.0470   50.5877 Cl  0  0  0  0  0  0  0  0  0  0  0  0
   19.7527    0.3562   51.1216 C   0  0  0  0  0  0  0  0  0  0  0  0
   26.3915   -1.5520   53.5597 O   0  0  0  0  0  0  0  0  0  0  0  0
   27.0020   -2.2159   52.4824 C   0  0  0  0  0  0  0  0  0  0  0  0
   28.4384   -2.3242   52.9616 C   0  0  0  0  0  0  0  0  0  0  0  0
   28.6446   -3.5610   53.4659 O   0  0  0  0  0  0  0  0  0  0  0  0
   29.5632   -3.6374   53.8516 H   0  0  0  0  0  0  0  0  0  0  0  0
 11 12  1  0  0  0
 12  1  1  0  0  0
  1  2  2  0  0  0
  2  3  1  0  0  0
  3  4  2  0  0  0
  4  5  1  0  0  0
  5  6  2  0  0  0
  6  7  1  0  0  0
  7 13  1  0  0  0
 13 15  1  0  0  0
 15 16  2  0  0  0
 16 17  1  0  0  0
 17 18  2  0  0  0
 18 19  1  0  0  0
 18 20  1  0  0  0
 20 21  1  0  0  0
 20 22  2  0  0  0
 15 22  1  0  0  0
  7  8  2  0  0  0
  3  8  1  0  0  0
  8  9  1  0  0  0
  9 10  2  0  0  0
  1 10  1  0  0  0
 10 23  1  0  0  0
 23 24  1  0  0  0
 24 25  1  0  0  0
 25 26  1  0  0  0
 13 14  1  0  0  0
 26 27  1  0  0  0
M  END
> <minimizedAffinity>
-8.11376

$$$$
CHEMBL249509


 22 24  0  0  0  0  0  0  0  0999 V2000
   25.2072    2.6246   52.0147 C   0  0  0  0  0  0  0  0  0  0  0  0
   25.5677    3.4371   51.0871 N   0  0  0  0  0  0  0  0  0  0  0  0
   24.7538    3.6045   49.8326 C   0  0  0  0  0  0  0  0  0  0  0  0
   23.6726    2.9401   49.6495 N   0  0  0  0  0  0  0  0  0  0  0  0
   23.1762    2.0171   50.5990 C   0  0  0  0  0  0  0  0  0  0  0  0
   22.0390    1.3368   50.3753 C   0  0  0  0  0  0  0  0  0  0  0  0
   21.5293    0.3716   51.3795 C   0  0  0  0  0  0  0  0  0  0  0  0
   22.2141    0.1858   52.5102 C   0  0  0  0  0  0  0  0  0  0  0  0
   23.4855    0.9513   52.7524 C   0  0  0  0  0  0  0  0  0  0  0  0
   23.9354    1.8212   51.8357 C   0  0  0  0  0  0  0  0  0  0  0  0
   26.0646    2.5201   53.2161 N   0  0  0  0  0  0  0  0  0  0  0  0
   25.9123    3.1677   54.0240 H   0  0  0  0  0  0  0  0  0  0  0  0
   30.0899   -1.6065   53.5698 F   0  0  0  0  0  0  0  0  0  0  0  0
   29.1662   -0.5987   53.5004 C   0  0  0  0  0  0  0  0  0  0  0  0
   29.5066    0.6324   53.8346 C   0  0  0  0  0  0  0  0  0  0  0  0
   28.4591    1.7530   53.7516 C   0  0  0  0  0  0  0  0  0  0  0  0
   27.1911    1.4861   53.3383 C   0  0  0  0  0  0  0  0  0  0  0  0
   26.8827    0.0745   52.9784 C   0  0  0  0  0  0  0  0  0  0  0  0
   27.8116   -0.8815   53.0593 C   0  0  0  0  0  0  0  0  0  0  0  0
   27.3988   -2.5054   52.6287 Cl  0  0  0  0  0  0  0  0  0  0  0  0
   21.7156   -0.7566   53.4893 C   0  0  0  0  0  0  0  0  0  0  0  0
   21.3002   -1.5419   54.3051 C   0  0  0  0  0  0  0  0  0  0  0  0
 13 14  1  0  0  0
 14 15  2  0  0  0
 15 16  1  0  0  0
 16 17  2  0  0  0
 17 11  1  0  0  0
 11  1  1  0  0  0
  1  2  2  0  0  0
  2  3  1  0  0  0
  3  4  2  0  0  0
  4  5  1  0  0  0
  5  6  2  0  0  0
  6  7  1  0  0  0
  7  8  2  0  0  0
  8  9  1  0  0  0
  9 10  2  0  0  0
  1 10  1  0  0  0
  5 10  1  0  0  0
  8 21  1  0  0  0
 21 22  3  0  0  0
 17 18  1  0  0  0
 18 19  2  0  0  0
 14 19  1  0  0  0
 19 20  1  0  0  0
 11 12  1  0  0  0
M  END
> <minimizedAffinity>
-8.32010

$$$$
CHEMBL289787


 21 23  0  0  0  0  0  0  0  0999 V2000
   26.2070   -0.0401   55.0414 C   0  0  0  0  0  0  0  0  0  0  0  0
   25.1018   -0.6523   54.5842 C   0  0  0  0  0  0  0  0  0  0  0  0
   24.5978   -0.3547   53.2312 C   0  0  0  0  0  0  0  0  0  0  0  0
   25.1886    0.5093   52.4110 C   0  0  0  0  0  0  0  0  0  0  0  0
   26.3623    1.2104   52.7955 C   0  0  0  0  0  0  0  0  0  0  0  0
   26.9488    2.0812   51.9552 C   0  0  0  0  0  0  0  0  0  0  0  0
   28.1263    2.7505   52.4090 N   0  0  0  0  0  0  0  0  0  0  0  0
   28.6154    2.5287   53.5887 C   0  0  0  0  0  0  0  0  0  0  0  0
   27.9583    1.5785   54.4798 N   0  0  0  0  0  0  0  0  0  0  0  0
   26.9087    0.9563   54.1264 C   0  0  0  0  0  0  0  0  0  0  0  0
   25.7582   -0.7459   57.3690 C   0  0  0  0  0  0  0  0  0  0  0  0
   26.7287   -0.3093   56.3647 O   0  0  0  0  0  0  0  0  0  0  0  0
   26.3789    2.3400   50.5796 N   0  0  0  0  0  0  0  0  0  0  0  0
   26.0793    1.5575   49.9709 H   0  0  0  0  0  0  0  0  0  0  0  0
   26.2413    3.6904   50.0870 C   0  0  0  0  0  0  0  0  0  0  0  0
   27.0863    4.1669   49.1649 C   0  0  0  0  0  0  0  0  0  0  0  0
   26.9342    5.5433   48.6727 C   0  0  0  0  0  0  0  0  0  0  0  0
   25.9583    6.3187   49.1410 C   0  0  0  0  0  0  0  0  0  0  0  0
   25.0417    5.8146   50.1356 C   0  0  0  0  0  0  0  0  0  0  0  0
   23.6358    6.8825   50.8323 Br  0  0  0  0  0  0  0  0  0  0  0  0
   25.1716    4.5823   50.5815 C   0  0  0  0  0  0  0  0  0  0  0  0
 11 12  1  0  0  0
 12  1  1  0  0  0
  1  2  2  0  0  0
  2  3  1  0  0  0
  3  4  2  0  0  0
  4  5  1  0  0  0
  5  6  2  0  0  0
  6 13  1  0  0  0
 13 15  1  0  0  0
 15 16  2  0  0  0
 16 17  1  0  0  0
 17 18  2  0  0  0
 18 19  1  0  0  0
 19 20  1  0  0  0
 19 21  2  0  0  0
 15 21  1  0  0  0
  6  7  1  0  0  0
  7  8  2  0  0  0
  8  9  1  0  0  0
  9 10  2  0  0  0
  1 10  1  0  0  0
  5 10  1  0  0  0
 13 14  1  0  0  0
M  END
> <minimizedAffinity>
-7.44159

$$$$
CHEMBL289959


 18 20  0  0  0  0  0  0  0  0999 V2000
   26.3251    0.8527   52.8197 C   0  0  0  0  0  0  0  0  0  0  0  0
   26.7278    2.0283   53.1341 N   0  0  0  0  0  0  0  0  0  0  0  0
   28.1153    2.2950   53.6221 C   0  0  0  0  0  0  0  0  0  0  0  0
   28.9583    1.3369   53.7424 N   0  0  0  0  0  0  0  0  0  0  0  0
   28.6418    0.0334   53.4355 C   0  0  0  0  0  0  0  0  0  0  0  0
   29.5482   -0.9441   53.5730 C   0  0  0  0  0  0  0  0  0  0  0  0
   29.1859   -2.3303   53.2385 C   0  0  0  0  0  0  0  0  0  0  0  0
   27.9504   -2.5767   52.8025 C   0  0  0  0  0  0  0  0  0  0  0  0
   26.9685   -1.5058   52.6554 C   0  0  0  0  0  0  0  0  0  0  0  0
   27.2968   -0.2568   52.9575 C   0  0  0  0  0  0  0  0  0  0  0  0
   24.9404    0.5775   52.3313 N   0  0  0  0  0  0  0  0  0  0  0  0
   24.7542    0.6709   51.3061 H   0  0  0  0  0  0  0  0  0  0  0  0
   23.8258    0.1857   53.1931 C   0  0  0  0  0  0  0  0  0  0  0  0
   22.6315    0.7284   52.9256 C   0  0  0  0  0  0  0  0  0  0  0  0
   21.4647    0.3984   53.7282 C   0  0  0  0  0  0  0  0  0  0  0  0
   21.5604   -0.4496   54.7453 C   0  0  0  0  0  0  0  0  0  0  0  0
   22.8265   -1.0736   55.0893 C   0  0  0  0  0  0  0  0  0  0  0  0
   23.9291   -0.7886   54.3638 C   0  0  0  0  0  0  0  0  0  0  0  0
 11 13  1  0  0  0
 13 14  2  0  0  0
 14 15  1  0  0  0
 15 16  2  0  0  0
 16 17  1  0  0  0
 17 18  2  0  0  0
 13 18  1  0  0  0
 11  1  1  0  0  0
  1  2  2  0  0  0
  2  3  1  0  0  0
  3  4  2  0  0  0
  4  5  1  0  0  0
  5  6  2  0  0  0
  6  7  1  0  0  0
  7  8  2  0  0  0
  8  9  1  0  0  0
  9 10  2  0  0  0
  1 10  1  0  0  0
  5 10  1  0  0  0
 11 12  1  0  0  0
M  END
> <minimizedAffinity>
-7.50797

$$$$
CHEMBL293090


 28 30  0  0  0  0  0  0  0  0999 V2000
   22.4329    1.5909   51.0738 C   0  0  0  0  0  0  0  0  0  0  0  0
   23.6116    1.8400   51.7169 C   0  0  0  0  0  0  0  0  0  0  0  0
   24.7315    2.6312   51.0231 C   0  0  0  0  0  0  0  0  0  0  0  0
   25.9216    2.9281   51.5520 C   0  0  0  0  0  0  0  0  0  0  0  0
   26.8325    3.6823   50.7246 N   0  0  0  0  0  0  0  0  0  0  0  0
   26.5389    4.0630   49.5319 C   0  0  0  0  0  0  0  0  0  0  0  0
   25.3663    3.7689   49.0148 N   0  0  0  0  0  0  0  0  0  0  0  0
   24.5237    3.1141   49.6835 C   0  0  0  0  0  0  0  0  0  0  0  0
   23.4066    2.8795   49.0683 C   0  0  0  0  0  0  0  0  0  0  0  0
   22.3995    2.2110   49.5780 C   0  0  0  0  0  0  0  0  0  0  0  0
   26.3977    2.5465   52.9337 N   0  0  0  0  0  0  0  0  0  0  0  0
   26.0828    3.0879   53.7682 H   0  0  0  0  0  0  0  0  0  0  0  0
   27.3438    1.3672   53.1286 C   0  0  0  0  0  0  0  0  0  0  0  0
   28.5757    1.5439   53.6289 C   0  0  0  0  0  0  0  0  0  0  0  0
   29.4997    0.3823   53.8181 C   0  0  0  0  0  0  0  0  0  0  0  0
   29.1233   -0.8580   53.4950 C   0  0  0  0  0  0  0  0  0  0  0  0
   29.9771   -1.9142   53.6723 F   0  0  0  0  0  0  0  0  0  0  0  0
   27.7860   -1.0683   52.9496 C   0  0  0  0  0  0  0  0  0  0  0  0
   27.2366   -2.6431   52.5117 Cl  0  0  0  0  0  0  0  0  0  0  0  0
   26.9577   -0.0430   52.7777 C   0  0  0  0  0  0  0  0  0  0  0  0
   21.5317    2.2284   48.5816 O   0  0  0  0  0  0  0  0  0  0  0  0
   20.2079    2.1516   48.7097 C   0  0  0  0  0  0  0  0  0  0  0  0
   21.3494    0.7647   51.9144 O   0  0  0  0  0  0  0  0  0  0  0  0
   21.5820   -0.2942   52.8471 C   0  0  0  0  0  0  0  0  0  0  0  0
   20.8135   -0.0297   54.1040 C   0  0  0  0  0  0  0  0  0  0  0  0
   22.6603   -1.2663   54.9542 C   0  0  0  0  0  0  0  0  0  0  0  0
   21.2278   -1.0176   55.0741 N   0  0  0  0  0  0  0  0  0  0  0  0
   20.9808   -0.6535   56.0107 H   0  0  0  0  0  0  0  0  0  0  0  0
 26 27  1  0  0  0
 27 25  1  0  0  0
 25 24  1  0  0  0
 24 23  1  0  0  0
 23  1  1  0  0  0
  1  2  2  0  0  0
  2  3  1  0  0  0
  3  4  2  0  0  0
  4 11  1  0  0  0
 11 13  1  0  0  0
 13 14  2  0  0  0
 14 15  1  0  0  0
 15 16  2  0  0  0
 16 17  1  0  0  0
 16 18  1  0  0  0
 18 19  1  0  0  0
 18 20  2  0  0  0
 13 20  1  0  0  0
  4  5  1  0  0  0
  5  6  2  0  0  0
  6  7  1  0  0  0
  7  8  2  0  0  0
  3  8  1  0  0  0
  8  9  1  0  0  0
  9 10  2  0  0  0
  1 10  1  0  0  0
 10 21  1  0  0  0
 21 22  1  0  0  0
 27 28  1  0  0  0
 11 12  1  0  0  0
M  END
> <minimizedAffinity>
-7.66538

$$$$
CHEMBL304929


 24 26  0  0  0  0  0  0  0  0999 V2000
   25.9837    0.0535   54.2456 C   0  0  0  0  0  0  0  0  0  0  0  0
   25.0072   -0.7750   54.6818 C   0  0  0  0  0  0  0  0  0  0  0  0
   23.6012   -0.6570   54.3029 C   0  0  0  0  0  0  0  0  0  0  0  0
   22.7440   -1.4928   54.7693 N   0  0  0  0  0  0  0  0  0  0  0  0
   21.4242   -1.4167   54.4385 C   0  0  0  0  0  0  0  0  0  0  0  0
   21.0085   -0.4871   53.6362 N   0  0  0  0  0  0  0  0  0  0  0  0
   21.8959    0.4899   53.0671 C   0  0  0  0  0  0  0  0  0  0  0  0
   23.2097    0.4151   53.3968 C   0  0  0  0  0  0  0  0  0  0  0  0
   24.2926    1.3767   52.8823 C   0  0  0  0  0  0  0  0  0  0  0  0
   25.6153    1.2761   53.2332 C   0  0  0  0  0  0  0  0  0  0  0  0
   28.5935    0.1575   54.6920 C   0  0  0  0  0  0  0  0  0  0  0  0
   27.2410   -0.3897   54.8392 O   0  0  0  0  0  0  0  0  0  0  0  0
   21.2764    1.5360   52.1331 N   0  0  0  0  0  0  0  0  0  0  0  0
   20.5001    2.1401   52.5188 H   0  0  0  0  0  0  0  0  0  0  0  0
   21.6848    1.7686   50.7195 C   0  0  0  0  0  0  0  0  0  0  0  0
   21.3425    0.9925   49.6614 C   0  0  0  0  0  0  0  0  0  0  0  0
   21.8401    1.3604   48.2639 C   0  0  0  0  0  0  0  0  0  0  0  0
   22.5973    2.4311   48.1104 C   0  0  0  0  0  0  0  0  0  0  0  0
   22.9599    3.2530   49.2314 C   0  0  0  0  0  0  0  0  0  0  0  0
   22.5420    2.9586   50.4617 C   0  0  0  0  0  0  0  0  0  0  0  0
   23.7814    4.3960   48.9929 C   0  0  0  0  0  0  0  0  0  0  0  0
   24.4756    5.3627   48.7915 C   0  0  0  0  0  0  0  0  0  0  0  0
   26.5212    2.3876   52.5722 O   0  0  0  0  0  0  0  0  0  0  0  0
   26.6076    2.7788   51.1918 C   0  0  0  0  0  0  0  0  0  0  0  0
 11 12  1  0  0  0
 12  1  1  0  0  0
  1  2  2  0  0  0
  2  3  1  0  0  0
  3  4  2  0  0  0
  4  5  1  0  0  0
  5  6  2  0  0  0
  6  7  1  0  0  0
  7 13  1  0  0  0
 13 15  1  0  0  0
 15 16  2  0  0  0
 16 17  1  0  0  0
 17 18  2  0  0  0
 18 19  1  0  0  0
 19 20  2  0  0  0
 15 20  1  0  0  0
 19 21  1  0  0  0
 21 22  3  0  0  0
  7  8  2  0  0  0
  3  8  1  0  0  0
  8  9  1  0  0  0
  9 10  2  0  0  0
  1 10  1  0  0  0
 10 23  1  0  0  0
 23 24  1  0  0  0
 13 14  1  0  0  0
M  END
> <minimizedAffinity>
-7.29299

$$$$
CHEMBL3098319


 26 28  0  0  0  0  0  0  0  0999 V2000
   26.7932   -0.5392   53.1550 C   0  0  0  0  0  0  0  0  0  0  0  0
   27.1204    0.3087   52.2140 C   0  0  0  0  0  0  0  0  0  0  0  0
   26.4167    1.3563   51.8983 C   0  0  0  0  0  0  0  0  0  0  0  0
   26.8843    2.0318   50.9584 N   0  0  0  0  0  0  0  0  0  0  0  0
   26.2571    3.0852   50.5001 C   0  0  0  0  0  0  0  0  0  0  0  0
   26.9773    4.0313   49.2244 Cl  0  0  0  0  0  0  0  0  0  0  0  0
   25.0901    3.3991   50.9813 N   0  0  0  0  0  0  0  0  0  0  0  0
   24.4515    2.6389   52.0523 C   0  0  0  0  0  0  0  0  0  0  0  0
   25.1756    1.6158   52.5543 C   0  0  0  0  0  0  0  0  0  0  0  0
   24.7909    0.7280   53.7229 C   0  0  0  0  0  0  0  0  0  0  0  0
   25.4989   -0.3653   54.0783 C   0  0  0  0  0  0  0  0  0  0  0  0
   28.9707   -1.1599   53.4401 C   0  0  0  0  0  0  0  0  0  0  0  0
   27.7258   -1.4101   53.0728 O   0  0  0  0  0  0  0  0  0  0  0  0
   23.0213    3.1315   52.4942 N   0  0  0  0  0  0  0  0  0  0  0  0
   22.9483    3.4371   53.4963 H   0  0  0  0  0  0  0  0  0  0  0  0
   22.0737    2.5430   51.7606 C   0  0  0  0  0  0  0  0  0  0  0  0
   20.8763    3.0105   52.1412 C   0  0  0  0  0  0  0  0  0  0  0  0
   19.6216    2.1503   52.0461 C   0  0  0  0  0  0  0  0  0  0  0  0
   19.6700    0.8855   51.5721 C   0  0  0  0  0  0  0  0  0  0  0  0
   20.9593    0.3745   51.0739 C   0  0  0  0  0  0  0  0  0  0  0  0
   22.0705    1.1205   51.1356 C   0  0  0  0  0  0  0  0  0  0  0  0
   18.4976   -0.0132   51.5451 N   0  0  0  0  0  0  0  0  0  0  0  0
   17.5514   -0.0552   50.4257 C   0  0  0  0  0  0  0  0  0  0  0  0
   18.1828   -0.8244   52.7353 C   0  0  0  0  0  0  0  0  0  0  0  0
   24.8596   -1.2063   55.3208 O   0  0  0  0  0  0  0  0  0  0  0  0
   23.4501   -1.4850   55.6361 C   0  0  0  0  0  0  0  0  0  0  0  0
 12 13  1  0  0  0
 13  1  1  0  0  0
  1  2  2  0  0  0
  2  3  1  0  0  0
  3  4  2  0  0  0
  4  5  1  0  0  0
  5  6  1  0  0  0
  5  7  2  0  0  0
  7  8  1  0  0  0
  8 14  1  0  0  0
 14 16  1  0  0  0
 16 17  2  0  0  0
 17 18  1  0  0  0
 18 19  2  0  0  0
 19 20  1  0  0  0
 20 21  2  0  0  0
 16 21  1  0  0  0
 19 22  1  0  0  0
 22 23  1  0  0  0
 22 24  1  0  0  0
  8  9  2  0  0  0
  3  9  1  0  0  0
  9 10  1  0  0  0
 10 11  2  0  0  0
  1 11  1  0  0  0
 11 25  1  0  0  0
 25 26  1  0  0  0
 14 15  1  0  0  0
M  END
> <minimizedAffinity>
-7.42948

$$$$
CHEMBL3098322


 25 27  0  0  0  0  0  0  0  0999 V2000
   27.8237    0.9480   52.6980 C   0  0  0  0  0  0  0  0  0  0  0  0
   27.2609    2.0705   52.3310 C   0  0  0  0  0  0  0  0  0  0  0  0
   26.0217    2.1801   51.9878 C   0  0  0  0  0  0  0  0  0  0  0  0
   25.6870    3.3469   51.6828 N   0  0  0  0  0  0  0  0  0  0  0  0
   24.4670    3.6435   51.3511 C   0  0  0  0  0  0  0  0  0  0  0  0
   24.0720    5.2802   50.8820 Cl  0  0  0  0  0  0  0  0  0  0  0  0
   23.5537    2.7194   51.3955 N   0  0  0  0  0  0  0  0  0  0  0  0
   23.8461    1.3216   51.7822 C   0  0  0  0  0  0  0  0  0  0  0  0
   25.1380    1.0487   52.0404 C   0  0  0  0  0  0  0  0  0  0  0  0
   25.7466   -0.3129   52.3795 C   0  0  0  0  0  0  0  0  0  0  0  0
   27.0481   -0.4505   52.7253 C   0  0  0  0  0  0  0  0  0  0  0  0
   29.3248    1.9197   54.1322 C   0  0  0  0  0  0  0  0  0  0  0  0
   29.0161    1.3307   52.9894 O   0  0  0  0  0  0  0  0  0  0  0  0
   22.6302    0.9111   51.5144 N   0  0  0  0  0  0  0  0  0  0  0  0
   22.5517    1.7862   50.9505 H   0  0  0  0  0  0  0  0  0  0  0  0
   21.2757    0.3189   52.0675 C   0  0  0  0  0  0  0  0  0  0  0  0
   21.3539   -0.3827   53.2141 C   0  0  0  0  0  0  0  0  0  0  0  0
   20.1467   -0.9782   53.8632 C   0  0  0  0  0  0  0  0  0  0  0  0
   18.9311   -0.8444   53.3154 C   0  0  0  0  0  0  0  0  0  0  0  0
   17.7455   -1.3780   53.9339 O   0  0  0  0  0  0  0  0  0  0  0  0
   18.7913   -0.1296   52.0372 C   0  0  0  0  0  0  0  0  0  0  0  0
   19.8632    0.4187   51.4277 C   0  0  0  0  0  0  0  0  0  0  0  0
   17.9002   -1.7392   54.8810 H   0  0  0  0  0  0  0  0  0  0  0  0
   27.4948   -1.9605   53.0769 O   0  0  0  0  0  0  0  0  0  0  0  0
   28.8440   -2.5469   53.2329 C   0  0  0  0  0  0  0  0  0  0  0  0
 12 13  1  0  0  0
 13  1  1  0  0  0
  1  2  2  0  0  0
  2  3  1  0  0  0
  3  4  2  0  0  0
  4  5  1  0  0  0
  5  6  1  0  0  0
  5  7  2  0  0  0
  7  8  1  0  0  0
  8 14  1  0  0  0
 14 16  1  0  0  0
 16 17  2  0  0  0
 17 18  1  0  0  0
 18 19  2  0  0  0
 19 20  1  0  0  0
 19 21  1  0  0  0
 21 22  2  0  0  0
 16 22  1  0  0  0
  8  9  2  0  0  0
  3  9  1  0  0  0
  9 10  1  0  0  0
 10 11  2  0  0  0
  1 11  1  0  0  0
 11 24  1  0  0  0
 24 25  1  0  0  0
 14 15  1  0  0  0
 20 23  1  0  0  0
M  END
> <minimizedAffinity>
-7.60910

$$$$
CHEMBL317925


 25 27  0  0  0  0  0  0  0  0999 V2000
   23.3967    0.0991   53.2391 C   0  0  0  0  0  0  0  0  0  0  0  0
   24.6492    0.2955   53.7126 C   0  0  0  0  0  0  0  0  0  0  0  0
   25.5748    1.1017   53.0592 C   0  0  0  0  0  0  0  0  0  0  0  0
   26.7532    1.2616   53.5426 N   0  0  0  0  0  0  0  0  0  0  0  0
   27.6365    2.0534   52.8853 C   0  0  0  0  0  0  0  0  0  0  0  0
   27.2952    2.6437   51.7794 N   0  0  0  0  0  0  0  0  0  0  0  0
   26.0345    2.4936   51.2303 C   0  0  0  0  0  0  0  0  0  0  0  0
   25.1557    1.7282   51.8505 C   0  0  0  0  0  0  0  0  0  0  0  0
   23.7740    1.5332   51.2952 C   0  0  0  0  0  0  0  0  0  0  0  0
   22.8799    0.7312   51.9614 C   0  0  0  0  0  0  0  0  0  0  0  0
   22.9324   -1.1809   55.2051 C   0  0  0  0  0  0  0  0  0  0  0  0
   22.5419   -0.6825   53.8985 O   0  0  0  0  0  0  0  0  0  0  0  0
   25.7005    3.1713   49.9963 N   0  0  0  0  0  0  0  0  0  0  0  0
   24.9626    2.6494   49.3627 H   0  0  0  0  0  0  0  0  0  0  0  0
   26.2317    4.4288   49.5387 C   0  0  0  0  0  0  0  0  0  0  0  0
   27.3547    4.5764   48.8037 C   0  0  0  0  0  0  0  0  0  0  0  0
   27.7989    5.9699   48.3894 C   0  0  0  0  0  0  0  0  0  0  0  0
   27.0690    7.0087   48.7623 C   0  0  0  0  0  0  0  0  0  0  0  0
   25.8689    6.8276   49.5499 C   0  0  0  0  0  0  0  0  0  0  0  0
   24.8529    8.3564   50.0612 Br  0  0  0  0  0  0  0  0  0  0  0  0
   25.4686    5.6223   49.9186 C   0  0  0  0  0  0  0  0  0  0  0  0
   23.5470    2.2504   50.0669 O   0  0  0  0  0  0  0  0  0  0  0  0
   22.5016    3.1237   50.0661 C   0  0  0  0  0  0  0  0  0  0  0  0
   21.4016    0.4703   51.4467 O   0  0  0  0  0  0  0  0  0  0  0  0
   20.2173    1.0730   52.0749 C   0  0  0  0  0  0  0  0  0  0  0  0
 11 12  1  0  0  0
 12  1  1  0  0  0
  1  2  2  0  0  0
  2  3  1  0  0  0
  3  4  2  0  0  0
  4  5  1  0  0  0
  5  6  2  0  0  0
  6  7  1  0  0  0
  7 13  1  0  0  0
 13 15  1  0  0  0
 15 16  2  0  0  0
 16 17  1  0  0  0
 17 18  2  0  0  0
 18 19  1  0  0  0
 19 20  1  0  0  0
 19 21  2  0  0  0
 15 21  1  0  0  0
  7  8  2  0  0  0
  3  8  1  0  0  0
  8  9  1  0  0  0
  9 22  1  0  0  0
 22 23  1  0  0  0
  9 10  2  0  0  0
  1 10  1  0  0  0
 10 24  1  0  0  0
 24 25  1  0  0  0
 13 14  1  0  0  0
M  END
> <minimizedAffinity>
-6.89953

$$$$
CHEMBL3218424


 24 26  0  0  0  0  0  0  0  0999 V2000
   21.9017    0.3383   52.7385 C   0  0  0  0  0  0  0  0  0  0  0  0
   21.1152    0.3925   51.6700 C   0  0  0  0  0  0  0  0  0  0  0  0
   21.5327    1.1561   50.5102 C   0  0  0  0  0  0  0  0  0  0  0  0
   22.7075    1.7798   50.5110 C   0  0  0  0  0  0  0  0  0  0  0  0
   23.0775    2.5314   49.4130 N   0  0  0  0  0  0  0  0  0  0  0  0
   24.1718    3.1794   49.3937 C   0  0  0  0  0  0  0  0  0  0  0  0
   25.0835    3.1491   50.4744 N   0  0  0  0  0  0  0  0  0  0  0  0
   24.9050    2.4724   51.5409 C   0  0  0  0  0  0  0  0  0  0  0  0
   23.5954    1.7127   51.6620 C   0  0  0  0  0  0  0  0  0  0  0  0
   23.1878    1.0388   52.7437 C   0  0  0  0  0  0  0  0  0  0  0  0
   20.7050    0.1767   54.9819 O   0  0  0  0  0  0  0  0  0  0  0  0
   21.4725   -0.4557   53.9421 B   0  0  0  0  0  0  0  0  0  0  0  0
   21.8196   -1.8462   54.0458 O   0  0  0  0  0  0  0  0  0  0  0  0
   19.7428    0.1282   54.7593 H   0  0  0  0  0  0  0  0  0  0  0  0
   21.0176   -2.3994   53.8750 H   0  0  0  0  0  0  0  0  0  0  0  0
   25.9924    2.5949   52.5141 N   0  0  0  0  0  0  0  0  0  0  0  0
   26.0909    3.4921   52.9280 H   0  0  0  0  0  0  0  0  0  0  0  0
   27.0243    1.6460   52.8692 C   0  0  0  0  0  0  0  0  0  0  0  0
   28.1778    1.9575   53.4697 C   0  0  0  0  0  0  0  0  0  0  0  0
   29.1472    0.9078   53.8004 C   0  0  0  0  0  0  0  0  0  0  0  0
   28.8752   -0.3650   53.5258 C   0  0  0  0  0  0  0  0  0  0  0  0
   27.6098   -0.7161   52.8988 C   0  0  0  0  0  0  0  0  0  0  0  0
   27.2422   -2.3698   52.5591 Cl  0  0  0  0  0  0  0  0  0  0  0  0
   26.7335    0.2352   52.5884 C   0  0  0  0  0  0  0  0  0  0  0  0
 11 12  1  0  0  0
 12 13  1  0  0  0
 12  1  1  0  0  0
  1  2  2  0  0  0
  2  3  1  0  0  0
  3  4  2  0  0  0
  4  5  1  0  0  0
  5  6  2  0  0  0
  6  7  1  0  0  0
  7  8  2  0  0  0
  8 16  1  0  0  0
 16 18  1  0  0  0
 18 19  2  0  0  0
 19 20  1  0  0  0
 20 21  2  0  0  0
 21 22  1  0  0  0
 22 23  1  0  0  0
 22 24  2  0  0  0
 18 24  1  0  0  0
  8  9  1  0  0  0
  4  9  1  0  0  0
  9 10  2  0  0  0
  1 10  1  0  0  0
 11 14  1  0  0  0
 13 15  1  0  0  0
 16 17  1  0  0  0
M  END
> <minimizedAffinity>
-8.03034

$$$$
CHEMBL327307


 24 26  0  0  0  0  0  0  0  0999 V2000
   25.3518   -0.4967   54.8625 C   0  0  0  0  0  0  0  0  0  0  0  0
   26.4994    0.1270   54.9770 C   0  0  0  0  0  0  0  0  0  0  0  0
   26.9763    0.9556   54.0823 C   0  0  0  0  0  0  0  0  0  0  0  0
   28.0844    1.4628   54.3698 N   0  0  0  0  0  0  0  0  0  0  0  0
   28.6531    2.3362   53.5697 C   0  0  0  0  0  0  0  0  0  0  0  0
   28.0457    2.7196   52.5042 N   0  0  0  0  0  0  0  0  0  0  0  0
   26.7572    2.2222   52.1154 C   0  0  0  0  0  0  0  0  0  0  0  0
   26.2164    1.2724   52.9074 C   0  0  0  0  0  0  0  0  0  0  0  0
   24.9136    0.5237   52.6785 C   0  0  0  0  0  0  0  0  0  0  0  0
   24.4063   -0.3453   53.5836 C   0  0  0  0  0  0  0  0  0  0  0  0
   25.7220   -0.7001   57.1237 C   0  0  0  0  0  0  0  0  0  0  0  0
   25.2761   -1.1617   55.9676 O   0  0  0  0  0  0  0  0  0  0  0  0
   26.2228    2.8723   50.8292 N   0  0  0  0  0  0  0  0  0  0  0  0
   26.9330    3.0912   50.1165 H   0  0  0  0  0  0  0  0  0  0  0  0
   24.8038    3.3602   50.5170 C   0  0  0  0  0  0  0  0  0  0  0  0
   24.1867    4.0553   51.4877 C   0  0  0  0  0  0  0  0  0  0  0  0
   22.8089    4.5654   51.3193 C   0  0  0  0  0  0  0  0  0  0  0  0
   22.1315    4.3476   50.1949 C   0  0  0  0  0  0  0  0  0  0  0  0
   20.3668    5.0182   50.0052 Br  0  0  0  0  0  0  0  0  0  0  0  0
   22.7436    3.5873   49.1094 C   0  0  0  0  0  0  0  0  0  0  0  0
   21.7567    3.2885   47.4882 Br  0  0  0  0  0  0  0  0  0  0  0  0
   23.9873    3.1045   49.2376 C   0  0  0  0  0  0  0  0  0  0  0  0
   22.9964   -0.9966   53.1559 O   0  0  0  0  0  0  0  0  0  0  0  0
   21.8529   -1.4237   53.9715 C   0  0  0  0  0  0  0  0  0  0  0  0
 11 12  1  0  0  0
 12  1  1  0  0  0
  1  2  2  0  0  0
  2  3  1  0  0  0
  3  4  2  0  0  0
  4  5  1  0  0  0
  5  6  2  0  0  0
  6  7  1  0  0  0
  7 13  1  0  0  0
 13 15  1  0  0  0
 15 16  2  0  0  0
 16 17  1  0  0  0
 17 18  2  0  0  0
 18 19  1  0  0  0
 18 20  1  0  0  0
 20 21  1  0  0  0
 20 22  2  0  0  0
 15 22  1  0  0  0
  7  8  2  0  0  0
  3  8  1  0  0  0
  8  9  1  0  0  0
  9 10  2  0  0  0
  1 10  1  0  0  0
 10 23  1  0  0  0
 23 24  1  0  0  0
 13 14  1  0  0  0
M  END
> <minimizedAffinity>
-7.29317

$$$$
CHEMBL328295


 20 22  0  0  0  0  0  0  0  0999 V2000
   22.0440   -0.9950   54.1743 C   0  0  0  0  0  0  0  0  0  0  0  0
   20.9717   -0.7511   53.4504 C   0  0  0  0  0  0  0  0  0  0  0  0
   21.1231    0.1337   52.3301 C   0  0  0  0  0  0  0  0  0  0  0  0
   22.3296    0.6742   52.1229 C   0  0  0  0  0  0  0  0  0  0  0  0
   22.5743    1.4993   51.0721 N   0  0  0  0  0  0  0  0  0  0  0  0
   23.7522    1.9716   50.8460 C   0  0  0  0  0  0  0  0  0  0  0  0
   24.8119    1.6125   51.8179 N   0  0  0  0  0  0  0  0  0  0  0  0
   24.6900    0.8887   52.8501 C   0  0  0  0  0  0  0  0  0  0  0  0
   23.4185    0.3432   53.0233 C   0  0  0  0  0  0  0  0  0  0  0  0
   23.2167   -0.4962   53.9670 C   0  0  0  0  0  0  0  0  0  0  0  0
   22.0000   -1.6793   55.1188 N   0  0  0  0  0  0  0  0  0  0  0  0
   22.9540   -1.8370   55.8430 O   0  0  0  0  0  0  0  0  0  0  0  0
   25.9395    0.6489   53.7652 N   0  0  0  0  0  0  0  0  0  0  0  0
   25.9743    1.2312   54.6687 H   0  0  0  0  0  0  0  0  0  0  0  0
   27.0842   -0.3048   53.5556 C   0  0  0  0  0  0  0  0  0  0  0  0
   26.7991   -1.4667   52.9589 C   0  0  0  0  0  0  0  0  0  0  0  0
   27.8399   -2.4542   52.7290 C   0  0  0  0  0  0  0  0  0  0  0  0
   29.1025   -2.2269   53.0694 C   0  0  0  0  0  0  0  0  0  0  0  0
   29.4891   -0.9756   53.7003 C   0  0  0  0  0  0  0  0  0  0  0  0
   28.5553   -0.0434   53.9371 C   0  0  0  0  0  0  0  0  0  0  0  0
 11 12  2  0  0  0
 11  1  1  0  0  0
  1  2  2  0  0  0
  2  3  1  0  0  0
  3  4  2  0  0  0
  4  5  1  0  0  0
  5  6  2  0  0  0
  6  7  1  0  0  0
  7  8  2  0  0  0
  8 13  1  0  0  0
 13 15  1  0  0  0
 15 16  2  0  0  0
 16 17  1  0  0  0
 17 18  2  0  0  0
 18 19  1  0  0  0
 19 20  2  0  0  0
 15 20  1  0  0  0
  8  9  1  0  0  0
  4  9  1  0  0  0
  9 10  2  0  0  0
  1 10  1  0  0  0
 13 14  1  0  0  0
M  END
> <minimizedAffinity>
-7.82290

$$$$
CHEMBL328955


 22 24  0  0  0  0  0  0  0  0999 V2000
   28.8319   -3.2152   53.0922 N   0  0  0  0  0  0  0  0  0  0  0  0
   28.3641   -2.0952   53.0928 C   0  0  0  0  0  0  0  0  0  0  0  0
   27.1114   -1.9015   52.6776 C   0  0  0  0  0  0  0  0  0  0  0  0
   26.5967   -0.6203   52.6856 C   0  0  0  0  0  0  0  0  0  0  0  0
   27.3699    0.3566   53.1046 C   0  0  0  0  0  0  0  0  0  0  0  0
   26.8836    1.5990   53.1169 C   0  0  0  0  0  0  0  0  0  0  0  0
   27.6474    2.5403   53.5274 N   0  0  0  0  0  0  0  0  0  0  0  0
   29.0212    2.2205   53.9667 C   0  0  0  0  0  0  0  0  0  0  0  0
   29.4521    1.0448   53.9447 N   0  0  0  0  0  0  0  0  0  0  0  0
   28.6986    0.1176   53.5400 C   0  0  0  0  0  0  0  0  0  0  0  0
   29.1782   -1.0728   53.5331 C   0  0  0  0  0  0  0  0  0  0  0  0
   28.2987   -3.9602   52.7926 H   0  0  0  0  0  0  0  0  0  0  0  0
   29.8276   -3.4680   53.4075 H   0  0  0  0  0  0  0  0  0  0  0  0
   25.5300    1.7450   52.6589 N   0  0  0  0  0  0  0  0  0  0  0  0
   24.7875    1.2490   53.1978 H   0  0  0  0  0  0  0  0  0  0  0  0
   25.2183    2.5421   51.5064 C   0  0  0  0  0  0  0  0  0  0  0  0
   23.9576    2.7900   51.1298 C   0  0  0  0  0  0  0  0  0  0  0  0
   23.7000    3.6184   49.9331 C   0  0  0  0  0  0  0  0  0  0  0  0
   24.7209    4.1144   49.2349 C   0  0  0  0  0  0  0  0  0  0  0  0
   26.0737    3.8397   49.6517 C   0  0  0  0  0  0  0  0  0  0  0  0
   27.4514    4.4200   48.8376 Cl  0  0  0  0  0  0  0  0  0  0  0  0
   26.3011    3.1039   50.7146 C   0  0  0  0  0  0  0  0  0  0  0  0
  1  2  1  0  0  0
  2  3  2  0  0  0
  3  4  1  0  0  0
  4  5  2  0  0  0
  5  6  1  0  0  0
  6 14  1  0  0  0
 14 16  1  0  0  0
 16 17  2  0  0  0
 17 18  1  0  0  0
 18 19  2  0  0  0
 19 20  1  0  0  0
 20 21  1  0  0  0
 20 22  2  0  0  0
 16 22  1  0  0  0
  6  7  2  0  0  0
  7  8  1  0  0  0
  8  9  2  0  0  0
  9 10  1  0  0  0
  5 10  1  0  0  0
 10 11  2  0  0  0
  2 11  1  0  0  0
  1 12  1  0  0  0
  1 13  1  0  0  0
 14 15  1  0  0  0
M  END
> <minimizedAffinity>
-8.39379

$$$$
CHEMBL329672


 19 21  0  0  0  0  0  0  0  0999 V2000
   26.5873    0.8978   52.8352 C   0  0  0  0  0  0  0  0  0  0  0  0
   26.9643    2.0847   53.1174 N   0  0  0  0  0  0  0  0  0  0  0  0
   28.3568    2.3791   53.5976 C   0  0  0  0  0  0  0  0  0  0  0  0
   29.2118    1.4343   53.7376 N   0  0  0  0  0  0  0  0  0  0  0  0
   28.9102    0.1209   53.4617 C   0  0  0  0  0  0  0  0  0  0  0  0
   29.8296   -0.8401   53.6197 C   0  0  0  0  0  0  0  0  0  0  0  0
   29.4878   -2.2385   53.3194 C   0  0  0  0  0  0  0  0  0  0  0  0
   28.2554   -2.5124   52.8927 C   0  0  0  0  0  0  0  0  0  0  0  0
   27.2588   -1.4591   52.7230 C   0  0  0  0  0  0  0  0  0  0  0  0
   27.5705   -0.1981   52.9949 C   0  0  0  0  0  0  0  0  0  0  0  0
   25.2297    0.6204   52.3683 N   0  0  0  0  0  0  0  0  0  0  0  0
   24.9973    0.7752   51.3581 H   0  0  0  0  0  0  0  0  0  0  0  0
   20.2071    0.5403   53.3185 Cl  0  0  0  0  0  0  0  0  0  0  0  0
   21.8058    0.0564   53.7444 C   0  0  0  0  0  0  0  0  0  0  0  0
   21.9829   -0.7093   54.8101 C   0  0  0  0  0  0  0  0  0  0  0  0
   23.2936   -1.1383   55.2057 C   0  0  0  0  0  0  0  0  0  0  0  0
   24.3636   -0.7536   54.4774 C   0  0  0  0  0  0  0  0  0  0  0  0
   24.1629    0.1320   53.2441 C   0  0  0  0  0  0  0  0  0  0  0  0
   22.9177    0.4930   52.9352 C   0  0  0  0  0  0  0  0  0  0  0  0
 13 14  1  0  0  0
 14 15  2  0  0  0
 15 16  1  0  0  0
 16 17  2  0  0  0
 17 18  1  0  0  0
 18 11  1  0  0  0
 11  1  1  0  0  0
  1  2  2  0  0  0
  2  3  1  0  0  0
  3  4  2  0  0  0
  4  5  1  0  0  0
  5  6  2  0  0  0
  6  7  1  0  0  0
  7  8  2  0  0  0
  8  9  1  0  0  0
  9 10  2  0  0  0
  1 10  1  0  0  0
  5 10  1  0  0  0
 18 19  2  0  0  0
 14 19  1  0  0  0
 11 12  1  0  0  0
M  END
> <minimizedAffinity>
-7.87366

$$$$
CHEMBL330224


 21 23  0  0  0  0  0  0  0  0999 V2000
   28.7849   -3.2117   53.0824 N   0  0  0  0  0  0  0  0  0  0  0  0
   28.3435   -2.0859   53.1229 C   0  0  0  0  0  0  0  0  0  0  0  0
   27.0782   -1.8569   52.7715 C   0  0  0  0  0  0  0  0  0  0  0  0
   26.5959   -0.5604   52.8262 C   0  0  0  0  0  0  0  0  0  0  0  0
   27.4123    0.3913   53.2246 C   0  0  0  0  0  0  0  0  0  0  0  0
   26.9537    1.6527   53.2812 C   0  0  0  0  0  0  0  0  0  0  0  0
   27.7511    2.5734   53.6688 N   0  0  0  0  0  0  0  0  0  0  0  0
   29.1549    2.1818   54.0374 C   0  0  0  0  0  0  0  0  0  0  0  0
   29.5446    0.9974   53.9718 N   0  0  0  0  0  0  0  0  0  0  0  0
   28.7515    0.1076   53.5902 C   0  0  0  0  0  0  0  0  0  0  0  0
   29.2001   -1.0934   53.5401 C   0  0  0  0  0  0  0  0  0  0  0  0
   28.2239   -3.9465   52.7960 H   0  0  0  0  0  0  0  0  0  0  0  0
   29.7890   -3.4912   53.3461 H   0  0  0  0  0  0  0  0  0  0  0  0
   25.5881    1.8207   52.8894 N   0  0  0  0  0  0  0  0  0  0  0  0
   24.8713    1.5050   53.5991 H   0  0  0  0  0  0  0  0  0  0  0  0
   25.1685    2.3793   51.6206 C   0  0  0  0  0  0  0  0  0  0  0  0
   23.8809    2.2665   51.2663 C   0  0  0  0  0  0  0  0  0  0  0  0
   23.4099    2.8124   49.9991 C   0  0  0  0  0  0  0  0  0  0  0  0
   24.2520    3.4297   49.1780 C   0  0  0  0  0  0  0  0  0  0  0  0
   25.6584    3.5784   49.5157 C   0  0  0  0  0  0  0  0  0  0  0  0
   26.1176    3.0832   50.6792 C   0  0  0  0  0  0  0  0  0  0  0  0
  1  2  1  0  0  0
  2  3  2  0  0  0
  3  4  1  0  0  0
  4  5  2  0  0  0
  5  6  1  0  0  0
  6 14  1  0  0  0
 14 16  1  0  0  0
 16 17  2  0  0  0
 17 18  1  0  0  0
 18 19  2  0  0  0
 19 20  1  0  0  0
 20 21  2  0  0  0
 16 21  1  0  0  0
  6  7  2  0  0  0
  7  8  1  0  0  0
  8  9  2  0  0  0
  9 10  1  0  0  0
  5 10  1  0  0  0
 10 11  2  0  0  0
  2 11  1  0  0  0
  1 12  1  0  0  0
  1 13  1  0  0  0
 14 15  1  0  0  0
M  END
> <minimizedAffinity>
-8.03049

$$$$
CHEMBL333082


 22 24  0  0  0  0  0  0  0  0999 V2000
   26.5399   -0.3919   56.4622 N   0  0  0  0  0  0  0  0  0  0  0  0
   26.0981   -0.0821   55.1083 C   0  0  0  0  0  0  0  0  0  0  0  0
   25.0016   -0.6769   54.6211 C   0  0  0  0  0  0  0  0  0  0  0  0
   24.5416   -0.3713   53.2472 C   0  0  0  0  0  0  0  0  0  0  0  0
   25.1721    0.4837   52.4467 C   0  0  0  0  0  0  0  0  0  0  0  0
   26.3475    1.1801   52.8451 C   0  0  0  0  0  0  0  0  0  0  0  0
   26.9532    2.0423   51.9901 C   0  0  0  0  0  0  0  0  0  0  0  0
   28.1573    2.7427   52.4255 N   0  0  0  0  0  0  0  0  0  0  0  0
   28.6108    2.5139   53.6275 C   0  0  0  0  0  0  0  0  0  0  0  0
   27.9034    1.5370   54.5626 N   0  0  0  0  0  0  0  0  0  0  0  0
   26.8561    0.9215   54.1971 C   0  0  0  0  0  0  0  0  0  0  0  0
   26.0146   -1.0886   57.0959 H   0  0  0  0  0  0  0  0  0  0  0  0
   27.4020    0.0909   56.8132 H   0  0  0  0  0  0  0  0  0  0  0  0
   26.3869    2.2727   50.6061 N   0  0  0  0  0  0  0  0  0  0  0  0
   26.1266    1.4780   49.9955 H   0  0  0  0  0  0  0  0  0  0  0  0
   26.1965    3.6154   50.1044 C   0  0  0  0  0  0  0  0  0  0  0  0
   27.0387    4.1278   49.1989 C   0  0  0  0  0  0  0  0  0  0  0  0
   26.8335    5.4942   48.6973 C   0  0  0  0  0  0  0  0  0  0  0  0
   25.8122    6.2247   49.1405 C   0  0  0  0  0  0  0  0  0  0  0  0
   24.8998    5.6822   50.1154 C   0  0  0  0  0  0  0  0  0  0  0  0
   23.4297    6.6819   50.7786 Br  0  0  0  0  0  0  0  0  0  0  0  0
   25.0770    4.4596   50.5693 C   0  0  0  0  0  0  0  0  0  0  0  0
  1  2  1  0  0  0
  2  3  2  0  0  0
  3  4  1  0  0  0
  4  5  2  0  0  0
  5  6  1  0  0  0
  6  7  2  0  0  0
  7 14  1  0  0  0
 14 16  1  0  0  0
 16 17  2  0  0  0
 17 18  1  0  0  0
 18 19  2  0  0  0
 19 20  1  0  0  0
 20 21  1  0  0  0
 20 22  2  0  0  0
 16 22  1  0  0  0
  7  8  1  0  0  0
  8  9  2  0  0  0
  9 10  1  0  0  0
 10 11  2  0  0  0
  2 11  1  0  0  0
  6 11  1  0  0  0
  1 12  1  0  0  0
  1 13  1  0  0  0
 14 15  1  0  0  0
M  END
> <minimizedAffinity>
-7.65583

$$$$
CHEMBL333418


 22 24  0  0  0  0  0  0  0  0999 V2000
   26.8558   -2.1980   52.6702 N   0  0  0  0  0  0  0  0  0  0  0  0
   27.6735   -1.1479   53.1249 C   0  0  0  0  0  0  0  0  0  0  0  0
   28.9961   -1.3388   53.2992 C   0  0  0  0  0  0  0  0  0  0  0  0
   29.9107   -0.2228   53.6665 C   0  0  0  0  0  0  0  0  0  0  0  0
   29.4059    1.0032   53.7929 C   0  0  0  0  0  0  0  0  0  0  0  0
   27.9721    1.2410   53.6193 C   0  0  0  0  0  0  0  0  0  0  0  0
   27.4869    2.3842   53.7844 N   0  0  0  0  0  0  0  0  0  0  0  0
   26.0892    2.6390   53.7079 C   0  0  0  0  0  0  0  0  0  0  0  0
   25.3023    1.6419   53.5110 N   0  0  0  0  0  0  0  0  0  0  0  0
   25.7727    0.3458   53.3347 C   0  0  0  0  0  0  0  0  0  0  0  0
   27.0974    0.1505   53.3425 C   0  0  0  0  0  0  0  0  0  0  0  0
   27.2646   -3.0103   52.5003 H   0  0  0  0  0  0  0  0  0  0  0  0
   25.9341   -2.0002   52.2373 H   0  0  0  0  0  0  0  0  0  0  0  0
   24.8728   -0.8247   53.2041 N   0  0  0  0  0  0  0  0  0  0  0  0
   25.3370   -1.7903   53.0818 H   0  0  0  0  0  0  0  0  0  0  0  0
   23.4483   -0.6908   53.4690 C   0  0  0  0  0  0  0  0  0  0  0  0
   22.9196   -0.9777   54.6662 C   0  0  0  0  0  0  0  0  0  0  0  0
   21.4652   -0.7896   54.8877 C   0  0  0  0  0  0  0  0  0  0  0  0
   20.6935   -0.3361   53.9013 C   0  0  0  0  0  0  0  0  0  0  0  0
   21.2532   -0.0298   52.6112 C   0  0  0  0  0  0  0  0  0  0  0  0
   20.1831    0.6245   51.1861 Br  0  0  0  0  0  0  0  0  0  0  0  0
   22.5457   -0.2023   52.4060 C   0  0  0  0  0  0  0  0  0  0  0  0
  1  2  1  0  0  0
  2  3  2  0  0  0
  3  4  1  0  0  0
  4  5  2  0  0  0
  5  6  1  0  0  0
  6  7  2  0  0  0
  7  8  1  0  0  0
  8  9  2  0  0  0
  9 10  1  0  0  0
 10 14  1  0  0  0
 14 16  1  0  0  0
 16 17  2  0  0  0
 17 18  1  0  0  0
 18 19  2  0  0  0
 19 20  1  0  0  0
 20 21  1  0  0  0
 20 22  2  0  0  0
 16 22  1  0  0  0
 10 11  2  0  0  0
  2 11  1  0  0  0
  6 11  1  0  0  0
  1 12  1  0  0  0
  1 13  1  0  0  0
 14 15  1  0  0  0
M  END
> <minimizedAffinity>
-7.86189

$$$$
CHEMBL336113


 22 24  0  0  0  0  0  0  0  0999 V2000
   23.9658   -0.1750   53.4505 C   0  0  0  0  0  0  0  0  0  0  0  0
   24.2516   -0.7574   54.5764 N   0  0  0  0  0  0  0  0  0  0  0  0
   23.2572   -1.3865   55.4821 C   0  0  0  0  0  0  0  0  0  0  0  0
   22.0138   -1.3892   55.1907 N   0  0  0  0  0  0  0  0  0  0  0  0
   21.5026   -0.7805   53.9635 C   0  0  0  0  0  0  0  0  0  0  0  0
   20.1884   -0.7887   53.6653 C   0  0  0  0  0  0  0  0  0  0  0  0
   19.6627   -0.1503   52.3809 C   0  0  0  0  0  0  0  0  0  0  0  0
   20.5182    0.4384   51.5153 C   0  0  0  0  0  0  0  0  0  0  0  0
   20.0125    1.0850   50.2205 N   0  0  0  0  0  0  0  0  0  0  0  0
   22.0315    0.4318   51.8878 C   0  0  0  0  0  0  0  0  0  0  0  0
   22.4732   -0.1414   53.0341 C   0  0  0  0  0  0  0  0  0  0  0  0
   19.0261    1.0888   49.9788 H   0  0  0  0  0  0  0  0  0  0  0  0
   20.6993    1.5387   49.5601 H   0  0  0  0  0  0  0  0  0  0  0  0
   25.0999    0.4490   52.5874 N   0  0  0  0  0  0  0  0  0  0  0  0
   24.8104    0.7978   51.6435 H   0  0  0  0  0  0  0  0  0  0  0  0
   29.4322   -1.8084   53.3621 C   0  0  0  0  0  0  0  0  0  0  0  0
   28.6544   -0.5205   53.3389 C   0  0  0  0  0  0  0  0  0  0  0  0
   29.2575    0.6249   53.6384 C   0  0  0  0  0  0  0  0  0  0  0  0
   28.5285    1.8927   53.6248 C   0  0  0  0  0  0  0  0  0  0  0  0
   27.2179    1.9110   53.3031 C   0  0  0  0  0  0  0  0  0  0  0  0
   26.5165    0.5965   52.9570 C   0  0  0  0  0  0  0  0  0  0  0  0
   27.2401   -0.5344   52.9874 C   0  0  0  0  0  0  0  0  0  0  0  0
 16 17  1  0  0  0
 17 18  2  0  0  0
 18 19  1  0  0  0
 19 20  2  0  0  0
 20 21  1  0  0  0
 21 14  1  0  0  0
 14  1  1  0  0  0
  1  2  2  0  0  0
  2  3  1  0  0  0
  3  4  2  0  0  0
  4  5  1  0  0  0
  5  6  2  0  0  0
  6  7  1  0  0  0
  7  8  2  0  0  0
  8  9  1  0  0  0
  8 10  1  0  0  0
 10 11  2  0  0  0
  1 11  1  0  0  0
  5 11  1  0  0  0
 21 22  2  0  0  0
 17 22  1  0  0  0
 14 15  1  0  0  0
  9 12  1  0  0  0
  9 13  1  0  0  0
M  END
> <minimizedAffinity>
-7.93482

$$$$
CHEMBL366580


 23 26  0  0  0  0  0  0  0  0999 V2000
   24.8092    1.0594   52.7314 C   0  0  0  0  0  0  0  0  0  0  0  0
   24.6965    2.3301   53.0978 N   0  0  0  0  0  0  0  0  0  0  0  0
   25.6882    2.9800   53.6941 C   0  0  0  0  0  0  0  0  0  0  0  0
   26.8432    2.3801   53.9505 N   0  0  0  0  0  0  0  0  0  0  0  0
   27.0349    1.1129   53.6160 C   0  0  0  0  0  0  0  0  0  0  0  0
   28.2618    0.5137   53.9007 C   0  0  0  0  0  0  0  0  0  0  0  0
   28.4025   -0.8096   53.5283 C   0  0  0  0  0  0  0  0  0  0  0  0
   29.4716   -1.6724   53.6663 C   0  0  0  0  0  0  0  0  0  0  0  0
   29.0501   -2.8244   53.1300 N   0  0  0  0  0  0  0  0  0  0  0  0
   27.8498   -2.7393   52.6898 N   0  0  0  0  0  0  0  0  0  0  0  0
   27.4080   -1.5108   52.9143 C   0  0  0  0  0  0  0  0  0  0  0  0
   26.1787   -0.9359   52.6208 C   0  0  0  0  0  0  0  0  0  0  0  0
   26.0085    0.3999   52.9858 C   0  0  0  0  0  0  0  0  0  0  0  0
   29.5979   -3.6408   53.0798 H   0  0  0  0  0  0  0  0  0  0  0  0
   23.7290    0.3701   52.0878 N   0  0  0  0  0  0  0  0  0  0  0  0
   23.8126    0.1741   51.0393 H   0  0  0  0  0  0  0  0  0  0  0  0
   18.4438   -0.0570   51.9682 Br  0  0  0  0  0  0  0  0  0  0  0  0
   20.1349   -0.3116   52.7969 C   0  0  0  0  0  0  0  0  0  0  0  0
   20.2014   -0.9224   54.0434 C   0  0  0  0  0  0  0  0  0  0  0  0
   21.4338   -1.1112   54.6536 C   0  0  0  0  0  0  0  0  0  0  0  0
   22.5917   -0.6880   54.0139 C   0  0  0  0  0  0  0  0  0  0  0  0
   22.5387   -0.0748   52.7652 C   0  0  0  0  0  0  0  0  0  0  0  0
   21.2988    0.1108   52.1600 C   0  0  0  0  0  0  0  0  0  0  0  0
 17 18  1  0  0  0
 18 19  2  0  0  0
 19 20  1  0  0  0
 20 21  2  0  0  0
 21 22  1  0  0  0
 22 15  1  0  0  0
 15  1  1  0  0  0
  1  2  2  0  0  0
  2  3  1  0  0  0
  3  4  2  0  0  0
  4  5  1  0  0  0
  5  6  2  0  0  0
  6  7  1  0  0  0
  7  8  2  0  0  0
  8  9  1  0  0  0
  9 10  1  0  0  0
 10 11  2  0  0  0
  7 11  1  0  0  0
 11 12  1  0  0  0
 12 13  2  0  0  0
  1 13  1  0  0  0
  5 13  1  0  0  0
 22 23  2  0  0  0
 18 23  1  0  0  0
 15 16  1  0  0  0
  9 14  1  0  0  0
M  END
> <minimizedAffinity>
-8.44187

$$$$
CHEMBL377277


 26 28  0  0  0  0  0  0  0  0999 V2000
   19.8980   -0.2413   52.6875 C   0  0  0  0  0  0  0  0  0  0  0  0
   20.7231    0.4214   51.8920 C   0  0  0  0  0  0  0  0  0  0  0  0
   22.1278    0.4680   52.1694 C   0  0  0  0  0  0  0  0  0  0  0  0
   22.5563   -0.1619   53.2459 C   0  0  0  0  0  0  0  0  0  0  0  0
   23.8782   -0.1337   53.5583 C   0  0  0  0  0  0  0  0  0  0  0  0
   24.2600   -0.7453   54.5878 N   0  0  0  0  0  0  0  0  0  0  0  0
   23.3943   -1.4795   55.4671 C   0  0  0  0  0  0  0  0  0  0  0  0
   22.1577   -1.5344   55.2230 N   0  0  0  0  0  0  0  0  0  0  0  0
   21.6742   -0.8885   54.1189 C   0  0  0  0  0  0  0  0  0  0  0  0
   20.3994   -0.9294   53.8533 C   0  0  0  0  0  0  0  0  0  0  0  0
   17.7620   -1.1912   53.0619 C   0  0  0  0  0  0  0  0  0  0  0  0
   18.6013   -0.2380   52.3611 O   0  0  0  0  0  0  0  0  0  0  0  0
   24.8290    0.5848   52.7305 N   0  0  0  0  0  0  0  0  0  0  0  0
   24.4374    1.2045   51.9352 H   0  0  0  0  0  0  0  0  0  0  0  0
   26.3087    0.4723   52.9909 C   0  0  0  0  0  0  0  0  0  0  0  0
   27.0694    1.5386   53.2775 C   0  0  0  0  0  0  0  0  0  0  0  0
   28.5440    1.3775   53.5322 C   0  0  0  0  0  0  0  0  0  0  0  0
   29.1231    0.1723   53.4789 C   0  0  0  0  0  0  0  0  0  0  0  0
   30.4670    0.0282   53.7120 F   0  0  0  0  0  0  0  0  0  0  0  0
   28.2888   -0.9894   53.1663 C   0  0  0  0  0  0  0  0  0  0  0  0
   28.9392   -2.5771   53.0753 Cl  0  0  0  0  0  0  0  0  0  0  0  0
   26.9902   -0.8460   52.9417 C   0  0  0  0  0  0  0  0  0  0  0  0
   23.0941    1.1742   51.3668 O   0  0  0  0  0  0  0  0  0  0  0  0
   22.7153    2.4110   50.8139 C   0  0  0  0  0  0  0  0  0  0  0  0
   23.6463    2.8530   49.6435 C   0  0  0  0  0  0  0  0  0  0  0  0
   22.8541    3.4738   51.9095 C   0  0  0  0  0  0  0  0  0  0  0  0
 11 12  1  0  0  0
 12  1  1  0  0  0
  1  2  2  0  0  0
  2  3  1  0  0  0
  3 23  1  0  0  0
 23 24  1  0  0  0
 24 25  1  0  0  0
 24 26  1  0  0  0
  3  4  2  0  0  0
  4  5  1  0  0  0
  5 13  1  0  0  0
 13 15  1  0  0  0
 15 16  2  0  0  0
 16 17  1  0  0  0
 17 18  2  0  0  0
 18 19  1  0  0  0
 18 20  1  0  0  0
 20 21  1  0  0  0
 20 22  2  0  0  0
 15 22  1  0  0  0
  5  6  2  0  0  0
  6  7  1  0  0  0
  7  8  2  0  0  0
  8  9  1  0  0  0
  4  9  1  0  0  0
  9 10  2  0  0  0
  1 10  1  0  0  0
 13 14  1  0  0  0
M  END
> <minimizedAffinity>
-8.29676

$$$$
CHEMBL379017


 40 43  0  0  0  0  0  0  0  0999 V2000
   21.2895   -0.4341   53.4640 C   0  0  0  0  0  0  0  0  0  0  0  0
   22.5023   -0.1083   53.1539 C   0  0  0  0  0  0  0  0  0  0  0  0
   22.7808    0.7181   52.0761 C   0  0  0  0  0  0  0  0  0  0  0  0
   21.7408    1.1988   51.4048 C   0  0  0  0  0  0  0  0  0  0  0  0
   21.9549    2.0224   50.3774 C   0  0  0  0  0  0  0  0  0  0  0  0
   20.9725    2.4811   49.7359 N   0  0  0  0  0  0  0  0  0  0  0  0
   19.5971    2.1595   50.0438 C   0  0  0  0  0  0  0  0  0  0  0  0
   19.3380    1.3838   51.0073 N   0  0  0  0  0  0  0  0  0  0  0  0
   20.3766    0.8696   51.7344 C   0  0  0  0  0  0  0  0  0  0  0  0
   20.1521    0.0647   52.7343 C   0  0  0  0  0  0  0  0  0  0  0  0
   21.1537    3.1011   48.9726 Xx  0  0  0  0  0  0  0  0  0  0  0  0
   18.3924    1.1504   51.2338 Xx  0  0  0  0  0  0  0  0  0  0  0  0
   22.4932   -1.4135   55.1455 C   0  0  0  0  0  0  0  0  0  0  0  0
   21.2462   -1.2210   54.4489 O   0  0  0  0  0  0  0  0  0  0  0  0
   20.5809   -0.8600   55.1025 Xx  0  0  0  0  0  0  0  0  0  0  0  0
   20.9377   -2.1126   54.1174 Xx  0  0  0  0  0  0  0  0  0  0  0  0
   24.1335    1.0695   51.6822 O   0  0  0  0  0  0  0  0  0  0  0  0
   24.1412    2.0539   51.5060 Xx  0  0  0  0  0  0  0  0  0  0  0  0
   24.3289    0.5776   50.8337 Xx  0  0  0  0  0  0  0  0  0  0  0  0
   25.1021    0.8239   52.4917 C   0  0  0  0  0  0  0  0  0  0  0  0
   26.2608    0.1739   51.7430 C   0  0  0  0  0  0  0  0  0  0  0  0
   27.2996   -0.0541   52.7211 C   0  0  0  0  0  0  0  0  0  0  0  0
   27.7522    1.2319   53.3172 N   0  0  0  0  0  0  0  0  0  0  0  0
   26.6419    1.9130   53.9988 C   0  0  0  0  0  0  0  0  0  0  0  0
   25.5443    2.1677   53.0327 C   0  0  0  0  0  0  0  0  0  0  0  0
   28.0914    1.8554   52.6128 Xx  0  0  0  0  0  0  0  0  0  0  0  0
   28.9057    0.8419   54.3912 S   0  0  0  0  0  0  0  0  0  0  0  0
   29.7668    2.0596   54.7008 O   0  0  0  0  0  0  0  0  0  0  0  0
   28.1859    0.4363   55.6564 O   0  0  0  0  0  0  0  0  0  0  0  0
   29.9554   -0.5365   53.8308 C   0  0  0  0  0  0  0  0  0  0  0  0
   23.2883    2.3547   50.0630 N   0  0  0  0  0  0  0  0  0  0  0  0
   23.9110    1.5655   49.7028 H   0  0  0  0  0  0  0  0  0  0  0  0
   23.8205    3.7076   50.2423 C   0  0  0  0  0  0  0  0  0  0  0  0
   23.2616    4.5770   51.0978 C   0  0  0  0  0  0  0  0  0  0  0  0
   23.8372    5.9621   51.2389 C   0  0  0  0  0  0  0  0  0  0  0  0
   24.9031    6.3314   50.5163 C   0  0  0  0  0  0  0  0  0  0  0  0
   25.4332    7.5968   50.6383 F   0  0  0  0  0  0  0  0  0  0  0  0
   25.4927    5.3594   49.5921 C   0  0  0  0  0  0  0  0  0  0  0  0
   26.8535    5.7160   48.6226 Cl  0  0  0  0  0  0  0  0  0  0  0  0
   24.9838    4.1474   49.4728 C   0  0  0  0  0  0  0  0  0  0  0  0
 13 14  1  0  0  0
 14  1  1  0  0  0
  1  2  2  0  0  0
  2  3  1  0  0  0
  3 17  1  0  0  0
 17 20  1  0  0  0
 20 21  1  0  0  0
 21 22  1  0  0  0
 22 23  1  0  0  0
 23 24  1  0  0  0
 24 25  1  0  0  0
 20 25  1  0  0  0
 23 27  1  0  0  0
 27 28  2  0  0  0
 27 29  2  0  0  0
 27 30  1  0  0  0
  3  4  2  0  0  0
  4  5  1  0  0  0
  5 31  1  0  0  0
 31 33  1  0  0  0
 33 34  2  0  0  0
 34 35  1  0  0  0
 35 36  2  0  0  0
 36 37  1  0  0  0
 36 38  1  0  0  0
 38 39  1  0  0  0
 38 40  2  0  0  0
 33 40  1  0  0  0
  5  6  2  0  0  0
  6  7  1  0  0  0
  7  8  2  0  0  0
  8  9  1  0  0  0
  4  9  1  0  0  0
  9 10  2  0  0  0
  1 10  1  0  0  0
 31 32  1  0  0  0
 14 15  1  0  0  0
 14 16  1  0  0  0
 17 18  1  0  0  0
 17 19  1  0  0  0
 23 26  1  0  0  0
  6 11  1  0  0  0
  8 12  1  0  0  0
M  END
> <minimizedAffinity>
-8.74698

$$$$
CHEMBL420624


 22 24  0  0  0  0  0  0  0  0999 V2000
   29.8533    1.1453   53.4988 N   0  0  0  0  0  0  0  0  0  0  0  0
   28.7464    0.7095   53.7414 C   0  0  0  0  0  0  0  0  0  0  0  0
   27.8993    0.4596   52.7415 C   0  0  0  0  0  0  0  0  0  0  0  0
   26.6445   -0.0361   53.0390 C   0  0  0  0  0  0  0  0  0  0  0  0
   26.3407   -0.2403   54.3011 C   0  0  0  0  0  0  0  0  0  0  0  0
   25.1304   -0.7191   54.5988 C   0  0  0  0  0  0  0  0  0  0  0  0
   24.8463   -0.9136   55.8310 N   0  0  0  0  0  0  0  0  0  0  0  0
   25.8608   -0.6027   56.8640 C   0  0  0  0  0  0  0  0  0  0  0  0
   26.9880   -0.1544   56.5552 N   0  0  0  0  0  0  0  0  0  0  0  0
   27.2648    0.0360   55.3408 C   0  0  0  0  0  0  0  0  0  0  0  0
   28.4309    0.4965   55.0665 C   0  0  0  0  0  0  0  0  0  0  0  0
   30.1183    1.3100   52.5865 H   0  0  0  0  0  0  0  0  0  0  0  0
   30.6005    1.3760   54.2360 H   0  0  0  0  0  0  0  0  0  0  0  0
   24.2685   -0.9662   53.4789 N   0  0  0  0  0  0  0  0  0  0  0  0
   24.7004   -1.3856   52.6301 H   0  0  0  0  0  0  0  0  0  0  0  0
   22.8671   -0.6473   53.5278 C   0  0  0  0  0  0  0  0  0  0  0  0
   21.9680   -1.5178   54.0050 C   0  0  0  0  0  0  0  0  0  0  0  0
   20.5388   -1.1524   54.0383 C   0  0  0  0  0  0  0  0  0  0  0  0
   20.1427    0.0400   53.5950 C   0  0  0  0  0  0  0  0  0  0  0  0
   21.1148    0.9817   53.0788 C   0  0  0  0  0  0  0  0  0  0  0  0
   20.6344    2.6939   52.4309 Br  0  0  0  0  0  0  0  0  0  0  0  0
   22.3949    0.6581   53.0475 C   0  0  0  0  0  0  0  0  0  0  0  0
  1  2  1  0  0  0
  2  3  2  0  0  0
  3  4  1  0  0  0
  4  5  2  0  0  0
  5  6  1  0  0  0
  6 14  1  0  0  0
 14 16  1  0  0  0
 16 17  2  0  0  0
 17 18  1  0  0  0
 18 19  2  0  0  0
 19 20  1  0  0  0
 20 21  1  0  0  0
 20 22  2  0  0  0
 16 22  1  0  0  0
  6  7  2  0  0  0
  7  8  1  0  0  0
  8  9  2  0  0  0
  9 10  1  0  0  0
  5 10  1  0  0  0
 10 11  2  0  0  0
  2 11  1  0  0  0
  1 12  1  0  0  0
  1 13  1  0  0  0
 14 15  1  0  0  0
M  END
> <minimizedAffinity>
-7.57119

$$$$
CHEMBL426580


 24 27  0  0  0  0  0  0  0  0999 V2000
   29.1380    0.5845   54.3090 C   0  0  0  0  0  0  0  0  0  0  0  0
   27.6579    0.2925   54.2057 C   0  0  0  0  0  0  0  0  0  0  0  0
   26.8893    0.6775   53.1816 N   0  0  0  0  0  0  0  0  0  0  0  0
   25.6674    0.2226   53.4833 C   0  0  0  0  0  0  0  0  0  0  0  0
   24.4568    0.3125   52.8045 C   0  0  0  0  0  0  0  0  0  0  0  0
   23.3292   -0.2788   53.3927 C   0  0  0  0  0  0  0  0  0  0  0  0
   22.0864   -0.2313   52.7770 C   0  0  0  0  0  0  0  0  0  0  0  0
   21.0558   -0.8130   53.3894 N   0  0  0  0  0  0  0  0  0  0  0  0
   21.1613   -1.4380   54.5646 C   0  0  0  0  0  0  0  0  0  0  0  0
   22.3362   -1.4975   55.1731 N   0  0  0  0  0  0  0  0  0  0  0  0
   23.4133   -0.9394   54.6233 C   0  0  0  0  0  0  0  0  0  0  0  0
   24.6313   -1.0180   55.2846 C   0  0  0  0  0  0  0  0  0  0  0  0
   25.7291   -0.4276   54.6854 C   0  0  0  0  0  0  0  0  0  0  0  0
   26.9617   -0.3803   55.1254 N   0  0  0  0  0  0  0  0  0  0  0  0
   27.1619    1.1837   52.3824 H   0  0  0  0  0  0  0  0  0  0  0  0
   21.9065    0.4433   51.4805 N   0  0  0  0  0  0  0  0  0  0  0  0
   21.7877   -0.1248   50.6467 H   0  0  0  0  0  0  0  0  0  0  0  0
   21.8884    1.8743   51.3203 C   0  0  0  0  0  0  0  0  0  0  0  0
   21.1657    2.6366   52.2364 C   0  0  0  0  0  0  0  0  0  0  0  0
   21.1194    4.0216   52.1218 C   0  0  0  0  0  0  0  0  0  0  0  0
   21.7971    4.6540   51.0880 C   0  0  0  0  0  0  0  0  0  0  0  0
   22.5195    3.9030   50.1708 C   0  0  0  0  0  0  0  0  0  0  0  0
   23.4469    4.7681   48.7561 Br  0  0  0  0  0  0  0  0  0  0  0  0
   22.5650    2.5195   50.2865 C   0  0  0  0  0  0  0  0  0  0  0  0
  1  2  1  0  0  0
  2  3  1  0  0  0
  3  4  1  0  0  0
  4  5  2  0  0  0
  5  6  1  0  0  0
  6  7  2  0  0  0
  7 16  1  0  0  0
 16 18  1  0  0  0
 18 19  2  0  0  0
 19 20  1  0  0  0
 20 21  2  0  0  0
 21 22  1  0  0  0
 22 23  1  0  0  0
 22 24  2  0  0  0
 18 24  1  0  0  0
  7  8  1  0  0  0
  8  9  2  0  0  0
  9 10  1  0  0  0
 10 11  2  0  0  0
  6 11  1  0  0  0
 11 12  1  0  0  0
 12 13  2  0  0  0
  4 13  1  0  0  0
 13 14  1  0  0  0
  2 14  2  0  0  0
 16 17  1  0  0  0
  3 15  1  0  0  0
M  END
> <minimizedAffinity>
-7.81026

$$$$
CHEMBL433205


 25 27  0  0  0  0  0  0  0  0999 V2000
   29.0330   -2.9263   53.0794 N   0  0  0  0  0  0  0  0  0  0  0  0
   28.4341   -1.8577   53.2010 C   0  0  0  0  0  0  0  0  0  0  0  0
   27.1021   -1.8037   53.0720 C   0  0  0  0  0  0  0  0  0  0  0  0
   26.4522   -0.5584   53.2240 C   0  0  0  0  0  0  0  0  0  0  0  0
   27.1937    0.4938   53.4897 C   0  0  0  0  0  0  0  0  0  0  0  0
   26.6499    1.7575   53.6525 C   0  0  0  0  0  0  0  0  0  0  0  0
   27.4665    2.7265   53.7528 N   0  0  0  0  0  0  0  0  0  0  0  0
   28.8973    2.5010   53.7705 C   0  0  0  0  0  0  0  0  0  0  0  0
   29.3798    1.3560   53.7065 N   0  0  0  0  0  0  0  0  0  0  0  0
   28.6192    0.3699   53.5643 C   0  0  0  0  0  0  0  0  0  0  0  0
   29.1994   -0.7633   53.4374 C   0  0  0  0  0  0  0  0  0  0  0  0
   28.5288   -3.7249   52.8896 H   0  0  0  0  0  0  0  0  0  0  0  0
   30.0920   -3.0542   53.1352 H   0  0  0  0  0  0  0  0  0  0  0  0
   25.2184    2.0724   53.7080 N   0  0  0  0  0  0  0  0  0  0  0  0
   24.8335    2.3328   54.6525 H   0  0  0  0  0  0  0  0  0  0  0  0
   24.1772    1.7489   52.6990 C   0  0  0  0  0  0  0  0  0  0  0  0
   23.1204    0.9026   52.8642 C   0  0  0  0  0  0  0  0  0  0  0  0
   22.1267    0.7651   51.6991 C   0  0  0  0  0  0  0  0  0  0  0  0
   22.3073    1.4629   50.5725 C   0  0  0  0  0  0  0  0  0  0  0  0
   23.4212    2.3478   50.4141 C   0  0  0  0  0  0  0  0  0  0  0  0
   24.3045    2.4975   51.3868 C   0  0  0  0  0  0  0  0  0  0  0  0
   23.5962    3.1220   49.1036 C   0  0  0  0  0  0  0  0  0  0  0  0
   23.1753    2.3280   48.0608 F   0  0  0  0  0  0  0  0  0  0  0  0
   22.8410    4.2516   49.1665 F   0  0  0  0  0  0  0  0  0  0  0  0
   24.9344    3.3699   48.9187 F   0  0  0  0  0  0  0  0  0  0  0  0
  1  2  1  0  0  0
  2  3  2  0  0  0
  3  4  1  0  0  0
  4  5  2  0  0  0
  5  6  1  0  0  0
  6 14  1  0  0  0
 14 16  1  0  0  0
 16 17  2  0  0  0
 17 18  1  0  0  0
 18 19  2  0  0  0
 19 20  1  0  0  0
 20 21  2  0  0  0
 16 21  1  0  0  0
 20 22  1  0  0  0
 22 23  1  0  0  0
 22 24  1  0  0  0
 22 25  1  0  0  0
  6  7  2  0  0  0
  7  8  1  0  0  0
  8  9  2  0  0  0
  9 10  1  0  0  0
  5 10  1  0  0  0
 10 11  2  0  0  0
  2 11  1  0  0  0
  1 12  1  0  0  0
  1 13  1  0  0  0
 14 15  1  0  0  0
M  END
> <minimizedAffinity>
-8.50274

$$$$
CHEMBL447230


 23 25  0  0  0  0  0  0  0  0999 V2000
   27.9003    1.3164   52.9440 C   0  0  0  0  0  0  0  0  0  0  0  0
   27.4133    0.4353   53.7837 C   0  0  0  0  0  0  0  0  0  0  0  0
   26.1359    0.2045   53.9384 C   0  0  0  0  0  0  0  0  0  0  0  0
   25.8681   -0.6912   54.7712 N   0  0  0  0  0  0  0  0  0  0  0  0
   24.6352   -1.0581   54.9865 C   0  0  0  0  0  0  0  0  0  0  0  0
   23.6840   -0.5413   54.2961 N   0  0  0  0  0  0  0  0  0  0  0  0
   23.8907    0.4667   53.2888 C   0  0  0  0  0  0  0  0  0  0  0  0
   25.1616    0.8930   53.1342 C   0  0  0  0  0  0  0  0  0  0  0  0
   25.6597    1.9868   52.2177 C   0  0  0  0  0  0  0  0  0  0  0  0
   26.9710    2.2504   52.0442 C   0  0  0  0  0  0  0  0  0  0  0  0
   29.7368    0.0812   53.5880 C   0  0  0  0  0  0  0  0  0  0  0  0
   29.1799    1.1686   53.0833 O   0  0  0  0  0  0  0  0  0  0  0  0
   22.5756    0.8625   52.6034 N   0  0  0  0  0  0  0  0  0  0  0  0
   21.3990    0.5778   53.4756 C   0  0  0  0  0  0  0  0  0  0  0  0
   22.3340    1.3532   51.1677 C   0  0  0  0  0  0  0  0  0  0  0  0
   21.6566    0.5395   50.3362 C   0  0  0  0  0  0  0  0  0  0  0  0
   21.3910    0.9008   48.9557 C   0  0  0  0  0  0  0  0  0  0  0  0
   21.8109    2.0567   48.4674 C   0  0  0  0  0  0  0  0  0  0  0  0
   22.5527    2.9836   49.2935 C   0  0  0  0  0  0  0  0  0  0  0  0
   23.1353    4.6553   48.5507 Br  0  0  0  0  0  0  0  0  0  0  0  0
   22.8246    2.6727   50.5651 C   0  0  0  0  0  0  0  0  0  0  0  0
   27.2730    3.4229   50.9815 O   0  0  0  0  0  0  0  0  0  0  0  0
   26.5794    3.7818   49.7340 C   0  0  0  0  0  0  0  0  0  0  0  0
 11 12  1  0  0  0
 12  1  1  0  0  0
  1  2  2  0  0  0
  2  3  1  0  0  0
  3  4  2  0  0  0
  4  5  1  0  0  0
  5  6  2  0  0  0
  6  7  1  0  0  0
  7 13  1  0  0  0
 13 14  1  0  0  0
 13 15  1  0  0  0
 15 16  2  0  0  0
 16 17  1  0  0  0
 17 18  2  0  0  0
 18 19  1  0  0  0
 19 20  1  0  0  0
 19 21  2  0  0  0
 15 21  1  0  0  0
  7  8  2  0  0  0
  3  8  1  0  0  0
  8  9  1  0  0  0
  9 10  2  0  0  0
  1 10  1  0  0  0
 10 22  1  0  0  0
 22 23  1  0  0  0
M  END
> <minimizedAffinity>
-7.68873

$$$$
CHEMBL539807


 26 28  0  0  0  0  0  0  0  0999 V2000
   20.2617   -0.8176   53.4090 C   0  0  0  0  0  0  0  0  0  0  0  0
   20.9152   -1.3181   54.4543 C   0  0  0  0  0  0  0  0  0  0  0  0
   22.3077   -1.1065   54.5789 C   0  0  0  0  0  0  0  0  0  0  0  0
   22.9658   -1.5876   55.6151 N   0  0  0  0  0  0  0  0  0  0  0  0
   24.2597   -1.3850   55.7101 C   0  0  0  0  0  0  0  0  0  0  0  0
   24.9241   -0.6841   54.7779 N   0  0  0  0  0  0  0  0  0  0  0  0
   24.3266   -0.1383   53.7100 C   0  0  0  0  0  0  0  0  0  0  0  0
   22.9610   -0.3760   53.5978 C   0  0  0  0  0  0  0  0  0  0  0  0
   22.2290    0.1136   52.4859 C   0  0  0  0  0  0  0  0  0  0  0  0
   20.9521   -0.0436   52.3432 C   0  0  0  0  0  0  0  0  0  0  0  0
   17.6868   -1.3351   53.3681 C   0  0  0  0  0  0  0  0  0  0  0  0
   19.0566   -1.0591   53.3892 O   0  0  0  0  0  0  0  0  0  0  0  0
   25.1494    0.7629   52.6948 N   0  0  0  0  0  0  0  0  0  0  0  0
   26.3693    0.1189   52.0236 C   0  0  0  0  0  0  0  0  0  0  0  0
   24.5921    2.0319   52.2059 C   0  0  0  0  0  0  0  0  0  0  0  0
   24.3412    3.0261   53.1592 C   0  0  0  0  0  0  0  0  0  0  0  0
   23.7943    4.2411   52.7477 C   0  0  0  0  0  0  0  0  0  0  0  0
   23.4906    4.4561   51.4140 C   0  0  0  0  0  0  0  0  0  0  0  0
   23.7356    3.4997   50.4539 C   0  0  0  0  0  0  0  0  0  0  0  0
   24.3006    2.2806   50.8425 C   0  0  0  0  0  0  0  0  0  0  0  0
   23.3154    3.8756   49.0168 C   0  0  0  0  0  0  0  0  0  0  0  0
   21.9990    4.2877   49.0132 F   0  0  0  0  0  0  0  0  0  0  0  0
   23.3457    2.7074   48.2985 F   0  0  0  0  0  0  0  0  0  0  0  0
   24.1300    4.8443   48.4725 F   0  0  0  0  0  0  0  0  0  0  0  0
   20.4509    0.6058   51.1177 O   0  0  0  0  0  0  0  0  0  0  0  0
   19.9615    1.2336   49.9357 C   0  0  0  0  0  0  0  0  0  0  0  0
 11 12  1  0  0  0
 12  1  1  0  0  0
  1  2  2  0  0  0
  2  3  1  0  0  0
  3  4  2  0  0  0
  4  5  1  0  0  0
  5  6  2  0  0  0
  6  7  1  0  0  0
  7 13  1  0  0  0
 13 14  1  0  0  0
 13 15  1  0  0  0
 15 16  2  0  0  0
 16 17  1  0  0  0
 17 18  2  0  0  0
 18 19  1  0  0  0
 19 20  2  0  0  0
 15 20  1  0  0  0
 19 21  1  0  0  0
 21 22  1  0  0  0
 21 23  1  0  0  0
 21 24  1  0  0  0
  7  8  2  0  0  0
  3  8  1  0  0  0
  8  9  1  0  0  0
  9 10  2  0  0  0
  1 10  1  0  0  0
 10 25  1  0  0  0
 25 26  1  0  0  0
M  END
> <minimizedAffinity>
-7.62005

$$$$
CHEMBL542484


 22 24  0  0  0  0  0  0  0  0999 V2000
   20.4824   -0.3641   53.1849 C   0  0  0  0  0  0  0  0  0  0  0  0
   21.0414   -0.9310   54.2243 C   0  0  0  0  0  0  0  0  0  0  0  0
   22.3279   -0.9685   54.4330 C   0  0  0  0  0  0  0  0  0  0  0  0
   22.6642   -1.5516   55.4870 N   0  0  0  0  0  0  0  0  0  0  0  0
   23.9179   -1.6450   55.8395 C   0  0  0  0  0  0  0  0  0  0  0  0
   24.8229   -1.0884   55.1192 N   0  0  0  0  0  0  0  0  0  0  0  0
   24.5328   -0.3658   53.9082 C   0  0  0  0  0  0  0  0  0  0  0  0
   23.2388   -0.3333   53.5260 C   0  0  0  0  0  0  0  0  0  0  0  0
   22.6604    0.2853   52.2667 C   0  0  0  0  0  0  0  0  0  0  0  0
   21.3280    0.3270   52.0223 C   0  0  0  0  0  0  0  0  0  0  0  0
   18.3051   -0.4982   52.4600 C   0  0  0  0  0  0  0  0  0  0  0  0
   19.2181   -0.5365   53.4107 O   0  0  0  0  0  0  0  0  0  0  0  0
   25.8035    0.2225   53.2783 N   0  0  0  0  0  0  0  0  0  0  0  0
   25.6099    1.0205   52.6258 H   0  0  0  0  0  0  0  0  0  0  0  0
   27.2397   -0.2022   53.3625 C   0  0  0  0  0  0  0  0  0  0  0  0
   28.0897    0.7908   53.6661 C   0  0  0  0  0  0  0  0  0  0  0  0
   29.5251    0.5637   53.7652 C   0  0  0  0  0  0  0  0  0  0  0  0
   30.0389   -0.6397   53.5471 C   0  0  0  0  0  0  0  0  0  0  0  0
   29.1853   -1.7639   53.1956 C   0  0  0  0  0  0  0  0  0  0  0  0
   27.8525   -1.5908   53.0960 C   0  0  0  0  0  0  0  0  0  0  0  0
   20.9277    1.0537   50.6393 O   0  0  0  0  0  0  0  0  0  0  0  0
   21.4942    0.9089   49.2794 C   0  0  0  0  0  0  0  0  0  0  0  0
 11 12  1  0  0  0
 12  1  1  0  0  0
  1  2  2  0  0  0
  2  3  1  0  0  0
  3  4  2  0  0  0
  4  5  1  0  0  0
  5  6  2  0  0  0
  6  7  1  0  0  0
  7 13  1  0  0  0
 13 15  1  0  0  0
 15 16  2  0  0  0
 16 17  1  0  0  0
 17 18  2  0  0  0
 18 19  1  0  0  0
 19 20  2  0  0  0
 15 20  1  0  0  0
  7  8  2  0  0  0
  3  8  1  0  0  0
  8  9  1  0  0  0
  9 10  2  0  0  0
  1 10  1  0  0  0
 10 21  1  0  0  0
 21 22  1  0  0  0
 13 14  1  0  0  0
M  END
> <minimizedAffinity>
-7.69593

$$$$
CHEMBL543195


 23 25  0  0  0  0  0  0  0  0999 V2000
   27.6439    0.8588   53.3039 C   0  0  0  0  0  0  0  0  0  0  0  0
   27.0473   -0.0044   54.0906 C   0  0  0  0  0  0  0  0  0  0  0  0
   25.7410   -0.1430   54.1688 C   0  0  0  0  0  0  0  0  0  0  0  0
   25.3440   -1.0388   54.9456 N   0  0  0  0  0  0  0  0  0  0  0  0
   24.0598   -1.3104   55.0629 C   0  0  0  0  0  0  0  0  0  0  0  0
   23.2043   -0.6947   54.3236 N   0  0  0  0  0  0  0  0  0  0  0  0
   23.5766    0.3176   53.3793 C   0  0  0  0  0  0  0  0  0  0  0  0
   24.8844    0.6406   53.3347 C   0  0  0  0  0  0  0  0  0  0  0  0
   25.5063    1.7176   52.4885 C   0  0  0  0  0  0  0  0  0  0  0  0
   26.8383    1.8873   52.3831 C   0  0  0  0  0  0  0  0  0  0  0  0
   29.3824   -0.6056   53.6563 C   0  0  0  0  0  0  0  0  0  0  0  0
   28.8969    0.6158   53.5012 O   0  0  0  0  0  0  0  0  0  0  0  0
   22.3835    0.8955   52.5609 N   0  0  0  0  0  0  0  0  0  0  0  0
   21.1101    0.8691   53.3356 C   0  0  0  0  0  0  0  0  0  0  0  0
   22.3590    1.4236   51.0651 C   0  0  0  0  0  0  0  0  0  0  0  0
   21.6281    0.7573   50.1515 C   0  0  0  0  0  0  0  0  0  0  0  0
   21.5380    1.2213   48.7310 C   0  0  0  0  0  0  0  0  0  0  0  0
   22.1874    2.3134   48.3222 C   0  0  0  0  0  0  0  0  0  0  0  0
   22.0522    2.8429   46.6988 Cl  0  0  0  0  0  0  0  0  0  0  0  0
   23.0180    3.0434   49.2480 C   0  0  0  0  0  0  0  0  0  0  0  0
   23.1286    2.6507   50.5254 C   0  0  0  0  0  0  0  0  0  0  0  0
   27.2699    3.0638   51.3566 O   0  0  0  0  0  0  0  0  0  0  0  0
   26.6558    3.4781   50.0855 C   0  0  0  0  0  0  0  0  0  0  0  0
 11 12  1  0  0  0
 12  1  1  0  0  0
  1  2  2  0  0  0
  2  3  1  0  0  0
  3  4  2  0  0  0
  4  5  1  0  0  0
  5  6  2  0  0  0
  6  7  1  0  0  0
  7 13  1  0  0  0
 13 14  1  0  0  0
 13 15  1  0  0  0
 15 16  2  0  0  0
 16 17  1  0  0  0
 17 18  2  0  0  0
 18 19  1  0  0  0
 18 20  1  0  0  0
 20 21  2  0  0  0
 15 21  1  0  0  0
  7  8  2  0  0  0
  3  8  1  0  0  0
  8  9  1  0  0  0
  9 10  2  0  0  0
  1 10  1  0  0  0
 10 22  1  0  0  0
 22 23  1  0  0  0
M  END
> <minimizedAffinity>
-7.68889

$$$$
CHEMBL543669


 22 24  0  0  0  0  0  0  0  0999 V2000
   28.2388    0.7234   53.9730 C   0  0  0  0  0  0  0  0  0  0  0  0
   28.1298    1.3992   52.8600 C   0  0  0  0  0  0  0  0  0  0  0  0
   27.0013    1.8585   52.3912 C   0  0  0  0  0  0  0  0  0  0  0  0
   27.1020    2.4654   51.3041 N   0  0  0  0  0  0  0  0  0  0  0  0
   26.0508    2.9420   50.6994 C   0  0  0  0  0  0  0  0  0  0  0  0
   24.8847    2.7389   51.1964 N   0  0  0  0  0  0  0  0  0  0  0  0
   24.6588    2.0215   52.4255 C   0  0  0  0  0  0  0  0  0  0  0  0
   25.7637    1.5973   53.0751 C   0  0  0  0  0  0  0  0  0  0  0  0
   25.8300    0.8906   54.4091 C   0  0  0  0  0  0  0  0  0  0  0  0
   26.9904    0.4159   54.9210 C   0  0  0  0  0  0  0  0  0  0  0  0
   29.9955   -0.7285   53.6344 C   0  0  0  0  0  0  0  0  0  0  0  0
   29.5045    0.4362   54.0110 O   0  0  0  0  0  0  0  0  0  0  0  0
   23.1580    1.9035   52.7559 N   0  0  0  0  0  0  0  0  0  0  0  0
   22.4269    3.1294   52.3253 C   0  0  0  0  0  0  0  0  0  0  0  0
   22.3475    0.7370   53.3047 C   0  0  0  0  0  0  0  0  0  0  0  0
   21.0072    0.8114   53.1886 C   0  0  0  0  0  0  0  0  0  0  0  0
   20.1371   -0.2522   53.6354 C   0  0  0  0  0  0  0  0  0  0  0  0
   20.6418   -1.3486   54.1726 C   0  0  0  0  0  0  0  0  0  0  0  0
   22.0697   -1.5104   54.3225 C   0  0  0  0  0  0  0  0  0  0  0  0
   22.9057   -0.5415   53.9216 C   0  0  0  0  0  0  0  0  0  0  0  0
   26.8357   -0.3345   56.3401 O   0  0  0  0  0  0  0  0  0  0  0  0
   25.6183   -0.7075   57.0994 C   0  0  0  0  0  0  0  0  0  0  0  0
 11 12  1  0  0  0
 12  1  1  0  0  0
  1  2  2  0  0  0
  2  3  1  0  0  0
  3  4  2  0  0  0
  4  5  1  0  0  0
  5  6  2  0  0  0
  6  7  1  0  0  0
  7 13  1  0  0  0
 13 14  1  0  0  0
 13 15  1  0  0  0
 15 16  2  0  0  0
 16 17  1  0  0  0
 17 18  2  0  0  0
 18 19  1  0  0  0
 19 20  2  0  0  0
 15 20  1  0  0  0
  7  8  2  0  0  0
  3  8  1  0  0  0
  8  9  1  0  0  0
  9 10  2  0  0  0
  1 10  1  0  0  0
 10 21  1  0  0  0
 21 22  1  0  0  0
M  END
> <minimizedAffinity>
-7.36912

$$$$
CHEMBL544833


 26 28  0  0  0  0  0  0  0  0999 V2000
   22.9843    2.0465   51.8204 C   0  0  0  0  0  0  0  0  0  0  0  0
   22.6590    3.2922   51.7459 N   0  0  0  0  0  0  0  0  0  0  0  0
   23.4357    4.3702   52.4263 C   0  0  0  0  0  0  0  0  0  0  0  0
   24.4654    4.0815   53.1099 N   0  0  0  0  0  0  0  0  0  0  0  0
   24.8999    2.7232   53.2400 C   0  0  0  0  0  0  0  0  0  0  0  0
   25.9770    2.4157   53.9475 C   0  0  0  0  0  0  0  0  0  0  0  0
   26.4308    0.9824   54.0776 C   0  0  0  0  0  0  0  0  0  0  0  0
   25.7641   -0.0143   53.4873 C   0  0  0  0  0  0  0  0  0  0  0  0
   24.5385    0.3584   52.6867 C   0  0  0  0  0  0  0  0  0  0  0  0
   24.1553    1.6511   52.5869 C   0  0  0  0  0  0  0  0  0  0  0  0
   22.1417    1.0391   51.1162 N   0  0  0  0  0  0  0  0  0  0  0  0
   22.3805    0.7720   50.1394 H   0  0  0  0  0  0  0  0  0  0  0  0
   18.7254   -1.0284   53.0751 C   0  0  0  0  0  0  0  0  0  0  0  0
   18.5375   -0.3161   51.9632 C   0  0  0  0  0  0  0  0  0  0  0  0
   19.6839    0.4117   51.2645 C   0  0  0  0  0  0  0  0  0  0  0  0
   20.9426    0.3622   51.7415 C   0  0  0  0  0  0  0  0  0  0  0  0
   21.1838   -0.4107   52.9660 C   0  0  0  0  0  0  0  0  0  0  0  0
   20.2272   -1.0732   53.6381 C   0  0  0  0  0  0  0  0  0  0  0  0
   16.3280   -2.1032   52.7140 C   0  0  0  0  0  0  0  0  0  0  0  0
   17.4183   -1.6311   53.5227 O   0  0  0  0  0  0  0  0  0  0  0  0
   20.8329   -1.7139   54.7987 O   0  0  0  0  0  0  0  0  0  0  0  0
   22.1994   -1.6896   55.1717 C   0  0  0  0  0  0  0  0  0  0  0  0
   27.5557    0.6416   54.8105 O   0  0  0  0  0  0  0  0  0  0  0  0
   28.8334    1.1191   54.2577 C   0  0  0  0  0  0  0  0  0  0  0  0
   26.2847   -1.4309   53.6626 O   0  0  0  0  0  0  0  0  0  0  0  0
   26.9960   -1.9956   52.4797 C   0  0  0  0  0  0  0  0  0  0  0  0
 19 20  1  0  0  0
 20 13  1  0  0  0
 13 14  2  0  0  0
 14 15  1  0  0  0
 15 16  2  0  0  0
 16 11  1  0  0  0
 11  1  1  0  0  0
  1  2  2  0  0  0
  2  3  1  0  0  0
  3  4  2  0  0  0
  4  5  1  0  0  0
  5  6  2  0  0  0
  6  7  1  0  0  0
  7 23  1  0  0  0
 23 24  1  0  0  0
  7  8  2  0  0  0
  8 25  1  0  0  0
 25 26  1  0  0  0
  8  9  1  0  0  0
  9 10  2  0  0  0
  1 10  1  0  0  0
  5 10  1  0  0  0
 16 17  1  0  0  0
 17 18  2  0  0  0
 13 18  1  0  0  0
 18 21  1  0  0  0
 21 22  1  0  0  0
 11 12  1  0  0  0
M  END
> <minimizedAffinity>
-7.27410

$$$$
CHEMBL545538


 23 25  0  0  0  0  0  0  0  0999 V2000
   22.6348    3.4838   51.1849 C   0  0  0  0  0  0  0  0  0  0  0  0
   21.6198    2.7428   51.5562 C   0  0  0  0  0  0  0  0  0  0  0  0
   21.7343    1.6505   52.2580 C   0  0  0  0  0  0  0  0  0  0  0  0
   20.6455    1.0917   52.5247 N   0  0  0  0  0  0  0  0  0  0  0  0
   20.6083    0.0146   53.2565 C   0  0  0  0  0  0  0  0  0  0  0  0
   21.6907   -0.4532   53.7620 N   0  0  0  0  0  0  0  0  0  0  0  0
   22.9862    0.1359   53.5453 C   0  0  0  0  0  0  0  0  0  0  0  0
   23.0194    1.2055   52.7258 C   0  0  0  0  0  0  0  0  0  0  0  0
   24.2406    1.9726   52.2585 C   0  0  0  0  0  0  0  0  0  0  0  0
   24.1487    3.0990   51.5170 C   0  0  0  0  0  0  0  0  0  0  0  0
   21.4126    5.4311   51.2076 C   0  0  0  0  0  0  0  0  0  0  0  0
   22.0592    4.4723   50.5742 O   0  0  0  0  0  0  0  0  0  0  0  0
   24.0820   -0.6126   54.2891 N   0  0  0  0  0  0  0  0  0  0  0  0
   23.5629   -1.3364   55.4752 C   0  0  0  0  0  0  0  0  0  0  0  0
   25.5685   -0.6204   54.0585 C   0  0  0  0  0  0  0  0  0  0  0  0
   26.3276    0.0987   54.9076 C   0  0  0  0  0  0  0  0  0  0  0  0
   27.7569    0.1858   54.7570 C   0  0  0  0  0  0  0  0  0  0  0  0
   28.3612   -0.4379   53.7627 C   0  0  0  0  0  0  0  0  0  0  0  0
   29.8398   -0.3397   53.6354 C   0  0  0  0  0  0  0  0  0  0  0  0
   27.6184   -1.2093   52.8014 C   0  0  0  0  0  0  0  0  0  0  0  0
   26.2904   -1.3173   52.9135 C   0  0  0  0  0  0  0  0  0  0  0  0
   25.5675    3.7756   51.1501 O   0  0  0  0  0  0  0  0  0  0  0  0
   26.5590    3.4311   50.1029 C   0  0  0  0  0  0  0  0  0  0  0  0
 11 12  1  0  0  0
 12  1  1  0  0  0
  1  2  2  0  0  0
  2  3  1  0  0  0
  3  4  2  0  0  0
  4  5  1  0  0  0
  5  6  2  0  0  0
  6  7  1  0  0  0
  7 13  1  0  0  0
 13 14  1  0  0  0
 13 15  1  0  0  0
 15 16  2  0  0  0
 16 17  1  0  0  0
 17 18  2  0  0  0
 18 19  1  0  0  0
 18 20  1  0  0  0
 20 21  2  0  0  0
 15 21  1  0  0  0
  7  8  2  0  0  0
  3  8  1  0  0  0
  8  9  1  0  0  0
  9 10  2  0  0  0
  1 10  1  0  0  0
 10 22  1  0  0  0
 22 23  1  0  0  0
M  END
> <minimizedAffinity>
-7.56282

$$$$
CHEMBL553523


 23 25  0  0  0  0  0  0  0  0999 V2000
   27.6661    0.8574   53.4675 C   0  0  0  0  0  0  0  0  0  0  0  0
   27.0534    0.0126   54.2592 C   0  0  0  0  0  0  0  0  0  0  0  0
   25.7427   -0.1248   54.3090 C   0  0  0  0  0  0  0  0  0  0  0  0
   25.3364   -1.0107   55.0901 N   0  0  0  0  0  0  0  0  0  0  0  0
   24.0633   -1.2957   55.1772 C   0  0  0  0  0  0  0  0  0  0  0  0
   23.2204   -0.7089   54.4035 N   0  0  0  0  0  0  0  0  0  0  0  0
   23.5881    0.2977   53.4405 C   0  0  0  0  0  0  0  0  0  0  0  0
   24.8981    0.6414   53.4305 C   0  0  0  0  0  0  0  0  0  0  0  0
   25.5489    1.6992   52.5929 C   0  0  0  0  0  0  0  0  0  0  0  0
   26.8819    1.8637   52.5164 C   0  0  0  0  0  0  0  0  0  0  0  0
   29.4580   -0.5738   53.5324 C   0  0  0  0  0  0  0  0  0  0  0  0
   28.9149    0.6207   53.6894 O   0  0  0  0  0  0  0  0  0  0  0  0
   22.3645    0.7907   52.6068 N   0  0  0  0  0  0  0  0  0  0  0  0
   21.1118    0.6706   53.3942 C   0  0  0  0  0  0  0  0  0  0  0  0
   22.2688    1.2543   51.1645 C   0  0  0  0  0  0  0  0  0  0  0  0
   21.5064    0.5370   50.3145 C   0  0  0  0  0  0  0  0  0  0  0  0
   21.3585    0.9147   48.9217 C   0  0  0  0  0  0  0  0  0  0  0  0
   21.9669    1.9931   48.4556 C   0  0  0  0  0  0  0  0  0  0  0  0
   22.8004    2.7926   49.3194 C   0  0  0  0  0  0  0  0  0  0  0  0
   23.4751    4.0228   48.7795 C   0  0  0  0  0  0  0  0  0  0  0  0
   22.9737    2.4480   50.5848 C   0  0  0  0  0  0  0  0  0  0  0  0
   27.3310    3.0155   51.4783 O   0  0  0  0  0  0  0  0  0  0  0  0
   26.7235    3.4617   50.2279 C   0  0  0  0  0  0  0  0  0  0  0  0
 11 12  1  0  0  0
 12  1  1  0  0  0
  1  2  2  0  0  0
  2  3  1  0  0  0
  3  4  2  0  0  0
  4  5  1  0  0  0
  5  6  2  0  0  0
  6  7  1  0  0  0
  7 13  1  0  0  0
 13 14  1  0  0  0
 13 15  1  0  0  0
 15 16  2  0  0  0
 16 17  1  0  0  0
 17 18  2  0  0  0
 18 19  1  0  0  0
 19 20  1  0  0  0
 19 21  2  0  0  0
 15 21  1  0  0  0
  7  8  2  0  0  0
  3  8  1  0  0  0
  8  9  1  0  0  0
  9 10  2  0  0  0
  1 10  1  0  0  0
 10 22  1  0  0  0
 22 23  1  0  0  0
M  END
> <minimizedAffinity>
-7.78366

$$$$
CHEMBL553908


 23 25  0  0  0  0  0  0  0  0999 V2000
   27.6914    0.8790   53.3310 C   0  0  0  0  0  0  0  0  0  0  0  0
   27.1077    0.0224   54.1314 C   0  0  0  0  0  0  0  0  0  0  0  0
   25.8114   -0.1307   54.2174 C   0  0  0  0  0  0  0  0  0  0  0  0
   25.4453   -1.0156   55.0217 N   0  0  0  0  0  0  0  0  0  0  0  0
   24.1818   -1.3074   55.1700 C   0  0  0  0  0  0  0  0  0  0  0  0
   23.3020   -0.7239   54.4390 N   0  0  0  0  0  0  0  0  0  0  0  0
   23.6247    0.2798   53.4579 C   0  0  0  0  0  0  0  0  0  0  0  0
   24.9272    0.6264   53.3747 C   0  0  0  0  0  0  0  0  0  0  0  0
   25.5380    1.6945   52.5008 C   0  0  0  0  0  0  0  0  0  0  0  0
   26.8713    1.8776   52.3965 C   0  0  0  0  0  0  0  0  0  0  0  0
   29.4569   -0.5570   53.6921 C   0  0  0  0  0  0  0  0  0  0  0  0
   28.9502    0.6536   53.5359 O   0  0  0  0  0  0  0  0  0  0  0  0
   22.3783    0.7668   52.7065 N   0  0  0  0  0  0  0  0  0  0  0  0
   21.1383    0.5799   53.5243 C   0  0  0  0  0  0  0  0  0  0  0  0
   22.2480    1.2689   51.2355 C   0  0  0  0  0  0  0  0  0  0  0  0
   21.5076    0.5269   50.3933 C   0  0  0  0  0  0  0  0  0  0  0  0
   21.3271    0.8906   48.9968 C   0  0  0  0  0  0  0  0  0  0  0  0
   21.8905    1.9801   48.4976 C   0  0  0  0  0  0  0  0  0  0  0  0
   22.7119    2.8376   49.3229 C   0  0  0  0  0  0  0  0  0  0  0  0
   23.4292    4.2811   48.6205 Cl  0  0  0  0  0  0  0  0  0  0  0  0
   22.9114    2.5233   50.6140 C   0  0  0  0  0  0  0  0  0  0  0  0
   27.2997    3.0382   51.3634 O   0  0  0  0  0  0  0  0  0  0  0  0
   26.6297    3.5318   50.1484 C   0  0  0  0  0  0  0  0  0  0  0  0
 11 12  1  0  0  0
 12  1  1  0  0  0
  1  2  2  0  0  0
  2  3  1  0  0  0
  3  4  2  0  0  0
  4  5  1  0  0  0
  5  6  2  0  0  0
  6  7  1  0  0  0
  7 13  1  0  0  0
 13 14  1  0  0  0
 13 15  1  0  0  0
 15 16  2  0  0  0
 16 17  1  0  0  0
 17 18  2  0  0  0
 18 19  1  0  0  0
 19 20  1  0  0  0
 19 21  2  0  0  0
 15 21  1  0  0  0
  7  8  2  0  0  0
  3  8  1  0  0  0
  8  9  1  0  0  0
  9 10  2  0  0  0
  1 10  1  0  0  0
 10 22  1  0  0  0
 22 23  1  0  0  0
M  END
> <minimizedAffinity>
-7.73602

$$$$
CHEMBL553


 30 32  0  0  0  0  0  0  0  0999 V2000
   26.2512    2.7629   50.8805 C   0  0  0  0  0  0  0  0  0  0  0  0
   24.9602    2.3786   51.4125 C   0  0  0  0  0  0  0  0  0  0  0  0
   23.7350    2.4724   50.7114 C   0  0  0  0  0  0  0  0  0  0  0  0
   22.5818    1.9720   51.2704 C   0  0  0  0  0  0  0  0  0  0  0  0
   22.6079    1.3163   52.5419 C   0  0  0  0  0  0  0  0  0  0  0  0
   23.7886    1.2590   53.2434 C   0  0  0  0  0  0  0  0  0  0  0  0
   24.9728    1.8074   52.6999 C   0  0  0  0  0  0  0  0  0  0  0  0
   26.1102    1.7639   53.4641 N   0  0  0  0  0  0  0  0  0  0  0  0
   27.1939    2.2651   52.9131 C   0  0  0  0  0  0  0  0  0  0  0  0
   27.3338    2.7307   51.6640 N   0  0  0  0  0  0  0  0  0  0  0  0
   26.4003    3.1158   49.5891 N   0  0  0  0  0  0  0  0  0  0  0  0
   26.4336    2.4029   48.8320 H   0  0  0  0  0  0  0  0  0  0  0  0
   28.0124    6.1706   48.2064 C   0  0  0  0  0  0  0  0  0  0  0  0
   27.8398    4.8770   48.7086 C   0  0  0  0  0  0  0  0  0  0  0  0
   26.5886    4.4480   49.1525 C   0  0  0  0  0  0  0  0  0  0  0  0
   25.4876    5.2993   49.0456 C   0  0  0  0  0  0  0  0  0  0  0  0
   25.6585    6.5842   48.5324 C   0  0  0  0  0  0  0  0  0  0  0  0
   26.9113    7.0384   48.1257 C   0  0  0  0  0  0  0  0  0  0  0  0
   30.4824    6.6340   47.3773 C   0  0  0  0  0  0  0  0  0  0  0  0
   29.3293    6.4974   47.7244 C   0  0  0  0  0  0  0  0  0  0  0  0
   21.3577    2.0482   50.6658 O   0  0  0  0  0  0  0  0  0  0  0  0
   20.9096    3.3445   50.2817 C   0  0  0  0  0  0  0  0  0  0  0  0
   20.4910    4.0601   51.5453 C   0  0  0  0  0  0  0  0  0  0  0  0
   19.4135    3.3719   52.1297 O   0  0  0  0  0  0  0  0  0  0  0  0
   18.2043    3.5598   51.4205 C   0  0  0  0  0  0  0  0  0  0  0  0
   21.4278    0.7970   52.9803 O   0  0  0  0  0  0  0  0  0  0  0  0
   21.4212    0.1799   54.2743 C   0  0  0  0  0  0  0  0  0  0  0  0
   21.3400   -1.3195   54.1076 C   0  0  0  0  0  0  0  0  0  0  0  0
   21.8927   -1.9030   55.2549 O   0  0  0  0  0  0  0  0  0  0  0  0
   23.2142   -1.4719   55.5175 C   0  0  0  0  0  0  0  0  0  0  0  0
 19 20  3  0  0  0
 20 13  1  0  0  0
 13 14  2  0  0  0
 13 18  1  0  0  0
 14 15  1  0  0  0
 15 11  1  0  0  0
 15 16  2  0  0  0
 11  1  1  0  0  0
 11 12  1  0  0  0
  1  2  2  0  0  0
  1 10  1  0  0  0
  2  7  1  0  0  0
  2  3  1  0  0  0
  3  4  2  0  0  0
  4 21  1  0  0  0
  4  5  1  0  0  0
 21 22  1  0  0  0
 22 23  1  0  0  0
 23 24  1  0  0  0
 24 25  1  0  0  0
  5  6  2  0  0  0
  5 26  1  0  0  0
 26 27  1  0  0  0
 27 28  1  0  0  0
 28 29  1  0  0  0
 29 30  1  0  0  0
  6  7  1  0  0  0
  7  8  2  0  0  0
  8  9  1  0  0  0
  9 10  2  0  0  0
 16 17  1  0  0  0
 17 18  2  0  0  0
M  END
> <minimizedAffinity>
-7.15296

$$$$
CHEMBL554053


 23 25  0  0  0  0  0  0  0  0999 V2000
   24.8498   -0.3837   53.9986 C   0  0  0  0  0  0  0  0  0  0  0  0
   25.0590   -0.9871   55.1103 N   0  0  0  0  0  0  0  0  0  0  0  0
   24.1080   -1.5699   55.9955 C   0  0  0  0  0  0  0  0  0  0  0  0
   22.8897   -1.4922   55.7114 N   0  0  0  0  0  0  0  0  0  0  0  0
   22.4340   -0.8741   54.5217 C   0  0  0  0  0  0  0  0  0  0  0  0
   21.1423   -0.8207   54.2296 C   0  0  0  0  0  0  0  0  0  0  0  0
   20.6948   -0.1738   52.9545 C   0  0  0  0  0  0  0  0  0  0  0  0
   21.5729    0.3262   52.0904 C   0  0  0  0  0  0  0  0  0  0  0  0
   23.0038    0.2286   52.4327 C   0  0  0  0  0  0  0  0  0  0  0  0
   23.4155   -0.3049   53.5836 C   0  0  0  0  0  0  0  0  0  0  0  0
   19.3710   -0.0618   52.6204 O   0  0  0  0  0  0  0  0  0  0  0  0
   18.4724   -1.0500   53.2544 C   0  0  0  0  0  0  0  0  0  0  0  0
   21.0637    0.9765   50.8363 O   0  0  0  0  0  0  0  0  0  0  0  0
   22.1028    1.3680   49.8743 C   0  0  0  0  0  0  0  0  0  0  0  0
   26.0041    0.1297   52.9755 N   0  0  0  0  0  0  0  0  0  0  0  0
   27.3069   -0.5166   53.0998 C   0  0  0  0  0  0  0  0  0  0  0  0
   27.4751   -1.8597   52.7541 C   0  0  0  0  0  0  0  0  0  0  0  0
   28.7037   -2.4830   52.9062 C   0  0  0  0  0  0  0  0  0  0  0  0
   29.7786   -1.7752   53.4164 C   0  0  0  0  0  0  0  0  0  0  0  0
   29.6349   -0.4445   53.7687 C   0  0  0  0  0  0  0  0  0  0  0  0
   28.4046    0.1875   53.6061 C   0  0  0  0  0  0  0  0  0  0  0  0
   25.8785    2.6228   52.0719 C   0  0  0  0  0  0  0  0  0  0  0  0
   25.7820    1.1464   51.6372 C   0  0  0  0  0  0  0  0  0  0  0  0
 22 23  1  0  0  0
 23 15  1  0  0  0
 15 16  1  0  0  0
 16 17  2  0  0  0
 17 18  1  0  0  0
 18 19  2  0  0  0
 19 20  1  0  0  0
 20 21  2  0  0  0
 16 21  1  0  0  0
 15  1  1  0  0  0
  1  2  2  0  0  0
  2  3  1  0  0  0
  3  4  2  0  0  0
  4  5  1  0  0  0
  5  6  2  0  0  0
  6  7  1  0  0  0
  7 11  1  0  0  0
 11 12  1  0  0  0
  7  8  2  0  0  0
  8 13  1  0  0  0
 13 14  1  0  0  0
  8  9  1  0  0  0
  9 10  2  0  0  0
  1 10  1  0  0  0
  5 10  1  0  0  0
M  END
> <minimizedAffinity>
-8.10218

$$$$
CHEMBL554566


 21 23  0  0  0  0  0  0  0  0999 V2000
   24.0867   -0.1382   53.6678 C   0  0  0  0  0  0  0  0  0  0  0  0
   24.4935   -0.7459   54.7132 N   0  0  0  0  0  0  0  0  0  0  0  0
   23.6163   -1.4924   55.5474 C   0  0  0  0  0  0  0  0  0  0  0  0
   22.3831   -1.6044   55.3016 N   0  0  0  0  0  0  0  0  0  0  0  0
   21.7609   -1.0620   54.2874 C   0  0  0  0  0  0  0  0  0  0  0  0
   20.4504   -1.2726   54.1665 C   0  0  0  0  0  0  0  0  0  0  0  0
   19.7139   -0.7026   53.0844 C   0  0  0  0  0  0  0  0  0  0  0  0
   18.2157   -1.0021   53.0150 C   0  0  0  0  0  0  0  0  0  0  0  0
   20.3777    0.0557   52.2013 C   0  0  0  0  0  0  0  0  0  0  0  0
   19.7138    0.6908   51.0426 C   0  0  0  0  0  0  0  0  0  0  0  0
   21.8243    0.2801   52.3556 C   0  0  0  0  0  0  0  0  0  0  0  0
   22.5170   -0.2664   53.3642 C   0  0  0  0  0  0  0  0  0  0  0  0
   24.7747    1.4340   51.7533 C   0  0  0  0  0  0  0  0  0  0  0  0
   25.1539    0.6089   52.8606 N   0  0  0  0  0  0  0  0  0  0  0  0
   26.6044    0.5097   53.1522 C   0  0  0  0  0  0  0  0  0  0  0  0
   27.2796    1.6279   53.4876 C   0  0  0  0  0  0  0  0  0  0  0  0
   28.6864    1.5887   53.7703 C   0  0  0  0  0  0  0  0  0  0  0  0
   29.3500    0.4494   53.7081 C   0  0  0  0  0  0  0  0  0  0  0  0
   28.6897   -0.7826   53.3602 C   0  0  0  0  0  0  0  0  0  0  0  0
   29.5441   -2.0386   53.3167 C   0  0  0  0  0  0  0  0  0  0  0  0
   27.3798   -0.7852   53.0911 C   0  0  0  0  0  0  0  0  0  0  0  0
 13 14  1  0  0  0
 14 15  1  0  0  0
 15 16  2  0  0  0
 16 17  1  0  0  0
 17 18  2  0  0  0
 18 19  1  0  0  0
 19 20  1  0  0  0
 19 21  2  0  0  0
 15 21  1  0  0  0
 14  1  1  0  0  0
  1  2  2  0  0  0
  2  3  1  0  0  0
  3  4  2  0  0  0
  4  5  1  0  0  0
  5  6  2  0  0  0
  6  7  1  0  0  0
  7  8  1  0  0  0
  7  9  2  0  0  0
  9 10  1  0  0  0
  9 11  1  0  0  0
 11 12  2  0  0  0
  1 12  1  0  0  0
  5 12  1  0  0  0
M  END
> <minimizedAffinity>
-8.80416

$$$$
CHEMBL555201


 24 26  0  0  0  0  0  0  0  0999 V2000
   22.0955    2.1520   50.5115 C   0  0  0  0  0  0  0  0  0  0  0  0
   22.9287    2.9522   49.8943 C   0  0  0  0  0  0  0  0  0  0  0  0
   24.1998    3.0476   50.1756 C   0  0  0  0  0  0  0  0  0  0  0  0
   24.8298    3.8762   49.4808 N   0  0  0  0  0  0  0  0  0  0  0  0
   26.1099    4.0956   49.6811 C   0  0  0  0  0  0  0  0  0  0  0  0
   26.7174    3.4914   50.6391 N   0  0  0  0  0  0  0  0  0  0  0  0
   26.0640    2.5516   51.5075 C   0  0  0  0  0  0  0  0  0  0  0  0
   24.7667    2.2853   51.2471 C   0  0  0  0  0  0  0  0  0  0  0  0
   23.8689    1.2729   51.9632 C   0  0  0  0  0  0  0  0  0  0  0  0
   22.5492    1.1515   51.6758 C   0  0  0  0  0  0  0  0  0  0  0  0
   20.7668    2.3291   48.6401 C   0  0  0  0  0  0  0  0  0  0  0  0
   20.9659    2.4275   49.9418 O   0  0  0  0  0  0  0  0  0  0  0  0
   26.9810    1.9783   52.5949 N   0  0  0  0  0  0  0  0  0  0  0  0
   27.3300    2.6726   53.2932 H   0  0  0  0  0  0  0  0  0  0  0  0
   27.4447    0.5015   52.8050 C   0  0  0  0  0  0  0  0  0  0  0  0
   28.5774    0.3155   53.5067 C   0  0  0  0  0  0  0  0  0  0  0  0
   29.1444   -1.0469   53.7497 C   0  0  0  0  0  0  0  0  0  0  0  0
   28.5300   -2.1452   53.2862 C   0  0  0  0  0  0  0  0  0  0  0  0
   29.0764   -3.4699   53.4757 O   0  0  0  0  0  0  0  0  0  0  0  0
   27.2546   -2.0048   52.5581 C   0  0  0  0  0  0  0  0  0  0  0  0
   26.7221   -0.7850   52.3210 C   0  0  0  0  0  0  0  0  0  0  0  0
   30.1012   -3.5018   53.4485 H   0  0  0  0  0  0  0  0  0  0  0  0
   21.7713    0.0513   52.5616 O   0  0  0  0  0  0  0  0  0  0  0  0
   20.7647    0.2242   53.6329 C   0  0  0  0  0  0  0  0  0  0  0  0
 11 12  1  0  0  0
 12  1  1  0  0  0
  1  2  2  0  0  0
  2  3  1  0  0  0
  3  4  2  0  0  0
  4  5  1  0  0  0
  5  6  2  0  0  0
  6  7  1  0  0  0
  7 13  1  0  0  0
 13 15  1  0  0  0
 15 16  2  0  0  0
 16 17  1  0  0  0
 17 18  2  0  0  0
 18 19  1  0  0  0
 18 20  1  0  0  0
 20 21  2  0  0  0
 15 21  1  0  0  0
  7  8  2  0  0  0
  3  8  1  0  0  0
  8  9  1  0  0  0
  9 10  2  0  0  0
  1 10  1  0  0  0
 10 23  1  0  0  0
 23 24  1  0  0  0
 13 14  1  0  0  0
 19 22  1  0  0  0
M  END
> <minimizedAffinity>
-7.62511

$$$$
CHEMBL555321


 19 21  0  0  0  0  0  0  0  0999 V2000
   26.5515    0.8791   52.8478 C   0  0  0  0  0  0  0  0  0  0  0  0
   26.9233    2.0694   53.1229 N   0  0  0  0  0  0  0  0  0  0  0  0
   28.3187    2.3746   53.5873 C   0  0  0  0  0  0  0  0  0  0  0  0
   29.1817    1.4362   53.7209 N   0  0  0  0  0  0  0  0  0  0  0  0
   28.8862    0.1199   53.4518 C   0  0  0  0  0  0  0  0  0  0  0  0
   29.8138   -0.8344   53.6026 C   0  0  0  0  0  0  0  0  0  0  0  0
   29.4784   -2.2359   53.3098 C   0  0  0  0  0  0  0  0  0  0  0  0
   28.2435   -2.5195   52.8968 C   0  0  0  0  0  0  0  0  0  0  0  0
   27.2380   -1.4734   52.7349 C   0  0  0  0  0  0  0  0  0  0  0  0
   27.5439   -0.2094   53.0000 C   0  0  0  0  0  0  0  0  0  0  0  0
   25.1909    0.5911   52.3962 N   0  0  0  0  0  0  0  0  0  0  0  0
   24.9464    0.7431   51.3885 H   0  0  0  0  0  0  0  0  0  0  0  0
   20.1770    0.4499   53.3845 Cl  0  0  0  0  0  0  0  0  0  0  0  0
   21.7854   -0.0079   53.8028 C   0  0  0  0  0  0  0  0  0  0  0  0
   21.9811   -0.7614   54.8739 C   0  0  0  0  0  0  0  0  0  0  0  0
   23.3005   -1.1686   55.2636 C   0  0  0  0  0  0  0  0  0  0  0  0
   24.3595   -0.7756   54.5237 C   0  0  0  0  0  0  0  0  0  0  0  0
   24.1375    0.0960   53.2843 C   0  0  0  0  0  0  0  0  0  0  0  0
   22.8851    0.4368   52.9814 C   0  0  0  0  0  0  0  0  0  0  0  0
 13 14  1  0  0  0
 14 15  2  0  0  0
 15 16  1  0  0  0
 16 17  2  0  0  0
 17 18  1  0  0  0
 18 11  1  0  0  0
 11  1  1  0  0  0
  1  2  2  0  0  0
  2  3  1  0  0  0
  3  4  2  0  0  0
  4  5  1  0  0  0
  5  6  2  0  0  0
  6  7  1  0  0  0
  7  8  2  0  0  0
  8  9  1  0  0  0
  9 10  2  0  0  0
  1 10  1  0  0  0
  5 10  1  0  0  0
 18 19  2  0  0  0
 14 19  1  0  0  0
 11 12  1  0  0  0
M  END
> <minimizedAffinity>
-7.87265

$$$$
CHEMBL63469


 25 27  0  0  0  0  0  0  0  0999 V2000
   28.3489   -2.9997   53.0491 N   0  0  0  0  0  0  0  0  0  0  0  0
   27.6165   -1.6011   53.1275 C   0  0  0  0  0  0  0  0  0  0  0  0
   26.2600   -1.4217   53.0762 C   0  0  0  0  0  0  0  0  0  0  0  0
   25.6241    0.0089   53.1619 C   0  0  0  0  0  0  0  0  0  0  0  0
   24.2937    0.2528   53.1171 C   0  0  0  0  0  0  0  0  0  0  0  0
   23.8818    1.6418   53.2102 N   0  0  0  0  0  0  0  0  0  0  0  0
   24.6767    2.6450   53.3305 C   0  0  0  0  0  0  0  0  0  0  0  0
   26.0462    2.4186   53.3785 N   0  0  0  0  0  0  0  0  0  0  0  0
   26.5283    1.2019   53.3029 C   0  0  0  0  0  0  0  0  0  0  0  0
   28.0216    0.8892   53.3499 C   0  0  0  0  0  0  0  0  0  0  0  0
   28.4898   -0.3960   53.2680 C   0  0  0  0  0  0  0  0  0  0  0  0
   30.2118   -0.7407   53.3235 Cl  0  0  0  0  0  0  0  0  0  0  0  0
   27.8048   -3.9087   52.9486 H   0  0  0  0  0  0  0  0  0  0  0  0
   29.3732   -3.0404   53.0955 H   0  0  0  0  0  0  0  0  0  0  0  0
   22.9009    1.8337   53.1782 Xx  0  0  0  0  0  0  0  0  0  0  0  0
   26.6720    3.1930   53.4720 Xx  0  0  0  0  0  0  0  0  0  0  0  0
   23.1999   -0.8216   52.9764 N   0  0  0  0  0  0  0  0  0  0  0  0
   23.4470   -1.8330   53.0940 H   0  0  0  0  0  0  0  0  0  0  0  0
   21.8252   -0.4664   52.6831 C   0  0  0  0  0  0  0  0  0  0  0  0
   20.8562   -0.7785   53.5507 C   0  0  0  0  0  0  0  0  0  0  0  0
   19.4652   -0.4210   53.2575 C   0  0  0  0  0  0  0  0  0  0  0  0
   19.1577    0.2148   52.1294 C   0  0  0  0  0  0  0  0  0  0  0  0
   20.1897    0.5600   51.1807 C   0  0  0  0  0  0  0  0  0  0  0  0
   19.7837    1.4677   49.5606 Br  0  0  0  0  0  0  0  0  0  0  0  0
   21.4450    0.2435   51.4335 C   0  0  0  0  0  0  0  0  0  0  0  0
  1  2  1  0  0  0
  2  3  2  0  0  0
  3  4  1  0  0  0
  4  5  2  0  0  0
  5 17  1  0  0  0
 17 19  1  0  0  0
 19 20  2  0  0  0
 20 21  1  0  0  0
 21 22  2  0  0  0
 22 23  1  0  0  0
 23 24  1  0  0  0
 23 25  2  0  0  0
 19 25  1  0  0  0
  5  6  1  0  0  0
  6  7  2  0  0  0
  7  8  1  0  0  0
  8  9  2  0  0  0
  4  9  1  0  0  0
  9 10  1  0  0  0
 10 11  2  0  0  0
  2 11  1  0  0  0
 11 12  1  0  0  0
  1 13  1  0  0  0
  1 14  1  0  0  0
 17 18  1  0  0  0
  6 15  1  0  0  0
  8 16  1  0  0  0
M  CHG 1   6   1
M  CHG 1   8   1
M  END
> <minimizedAffinity>
-7.79214

$$$$
CHEMBL65250


 24 26  0  0  0  0  0  0  0  0999 V2000
   23.0401    1.7465   52.1312 C   0  0  0  0  0  0  0  0  0  0  0  0
   24.2676    1.3836   52.7973 C   0  0  0  0  0  0  0  0  0  0  0  0
   24.7187    0.0489   52.9261 C   0  0  0  0  0  0  0  0  0  0  0  0
   25.9353   -0.1982   53.5065 C   0  0  0  0  0  0  0  0  0  0  0  0
   26.7573    0.8793   53.9624 C   0  0  0  0  0  0  0  0  0  0  0  0
   26.3146    2.1747   53.8680 C   0  0  0  0  0  0  0  0  0  0  0  0
   25.0504    2.4452   53.2870 C   0  0  0  0  0  0  0  0  0  0  0  0
   24.6227    3.7461   53.2199 N   0  0  0  0  0  0  0  0  0  0  0  0
   23.4466    3.9382   52.6622 C   0  0  0  0  0  0  0  0  0  0  0  0
   22.6442    3.0211   52.0989 N   0  0  0  0  0  0  0  0  0  0  0  0
   22.2956    0.8086   51.5117 N   0  0  0  0  0  0  0  0  0  0  0  0
   22.5700    0.4398   50.5782 H   0  0  0  0  0  0  0  0  0  0  0  0
   18.6999   -0.1225   51.5966 C   0  0  0  0  0  0  0  0  0  0  0  0
   19.9185    0.4090   51.1642 C   0  0  0  0  0  0  0  0  0  0  0  0
   21.0480    0.3452   51.9782 C   0  0  0  0  0  0  0  0  0  0  0  0
   20.9781   -0.2995   53.2147 C   0  0  0  0  0  0  0  0  0  0  0  0
   19.7641   -0.8315   53.6424 C   0  0  0  0  0  0  0  0  0  0  0  0
   18.6182   -0.7414   52.8534 C   0  0  0  0  0  0  0  0  0  0  0  0
   16.7943   -0.0925   49.7631 C   0  0  0  0  0  0  0  0  0  0  0  0
   17.6129   -0.0558   50.6557 C   0  0  0  0  0  0  0  0  0  0  0  0
   26.4571   -1.4410   53.7063 O   0  0  0  0  0  0  0  0  0  0  0  0
   26.9119   -2.1370   52.5490 C   0  0  0  0  0  0  0  0  0  0  0  0
   27.9519    0.5001   54.4895 O   0  0  0  0  0  0  0  0  0  0  0  0
   29.1453    0.9065   53.8210 C   0  0  0  0  0  0  0  0  0  0  0  0
 19 20  3  0  0  0
 20 13  1  0  0  0
 13 14  2  0  0  0
 13 18  1  0  0  0
 14 15  1  0  0  0
 15 11  1  0  0  0
 15 16  2  0  0  0
 11  1  1  0  0  0
 11 12  1  0  0  0
  1  2  2  0  0  0
  1 10  1  0  0  0
  2  7  1  0  0  0
  2  3  1  0  0  0
  3  4  2  0  0  0
  4 21  1  0  0  0
  4  5  1  0  0  0
 21 22  1  0  0  0
  5  6  2  0  0  0
  5 23  1  0  0  0
 23 24  1  0  0  0
  6  7  1  0  0  0
  7  8  2  0  0  0
  8  9  1  0  0  0
  9 10  2  0  0  0
 16 17  1  0  0  0
 17 18  2  0  0  0
M  END
> <minimizedAffinity>
-7.47461

$$$$
CHEMBL90013


 24 26  0  0  0  0  0  0  0  0999 V2000
   23.5121   -0.6787   53.9027 C   0  0  0  0  0  0  0  0  0  0  0  0
   22.5719   -1.1620   54.7194 C   0  0  0  0  0  0  0  0  0  0  0  0
   21.2784   -1.0449   54.3793 C   0  0  0  0  0  0  0  0  0  0  0  0
   20.9811   -0.4565   53.2503 C   0  0  0  0  0  0  0  0  0  0  0  0
   19.7374   -0.3522   52.9387 C   0  0  0  0  0  0  0  0  0  0  0  0
   19.4308    0.2218   51.8359 N   0  0  0  0  0  0  0  0  0  0  0  0
   20.5111    0.7391   50.9689 C   0  0  0  0  0  0  0  0  0  0  0  0
   21.6991    0.6233   51.2968 N   0  0  0  0  0  0  0  0  0  0  0  0
   21.9629    0.0510   52.3924 C   0  0  0  0  0  0  0  0  0  0  0  0
   23.1852   -0.0555   52.7061 C   0  0  0  0  0  0  0  0  0  0  0  0
   18.4732    0.3188   51.5645 Xx  0  0  0  0  0  0  0  0  0  0  0  0
   22.4302    0.9731   50.7109 Xx  0  0  0  0  0  0  0  0  0  0  0  0
   25.3306   -0.6617   55.5733 C   0  0  0  0  0  0  0  0  0  0  0  0
   24.7352   -0.7695   54.1868 N   0  0  0  0  0  0  0  0  0  0  0  0
   26.6087   -0.7196   52.7041 C   0  0  0  0  0  0  0  0  0  0  0  0
   18.8129   -0.9084   53.8927 N   0  0  0  0  0  0  0  0  0  0  0  0
   18.9257   -0.5961   54.8915 H   0  0  0  0  0  0  0  0  0  0  0  0
   17.7903   -1.8428   53.4925 C   0  0  0  0  0  0  0  0  0  0  0  0
   17.8475   -3.1374   53.8313 C   0  0  0  0  0  0  0  0  0  0  0  0
   16.7776   -4.0561   53.3988 C   0  0  0  0  0  0  0  0  0  0  0  0
   15.7570   -3.6008   52.6734 C   0  0  0  0  0  0  0  0  0  0  0  0
   15.6940   -2.2019   52.3068 C   0  0  0  0  0  0  0  0  0  0  0  0
   14.2795   -1.4762   51.2793 Br  0  0  0  0  0  0  0  0  0  0  0  0
   16.6498   -1.3762   52.6919 C   0  0  0  0  0  0  0  0  0  0  0  0
 13 14  1  0  0  0
 14 15  1  0  0  0
 14  1  1  0  0  0
  1  2  2  0  0  0
  2  3  1  0  0  0
  3  4  2  0  0  0
  4  5  1  0  0  0
  5 16  1  0  0  0
 16 18  1  0  0  0
 18 19  2  0  0  0
 19 20  1  0  0  0
 20 21  2  0  0  0
 21 22  1  0  0  0
 22 23  1  0  0  0
 22 24  2  0  0  0
 18 24  1  0  0  0
  5  6  2  0  0  0
  6  7  1  0  0  0
  7  8  2  0  0  0
  8  9  1  0  0  0
  4  9  1  0  0  0
  9 10  2  0  0  0
  1 10  1  0  0  0
 16 17  1  0  0  0
  6 11  1  0  0  0
  8 12  1  0  0  0
M  END
> <minimizedAffinity>
-7.36558

$$$$
CHEMBL91914


 26 28  0  0  0  0  0  0  0  0999 V2000
   27.7684    1.2751   53.9036 C   0  0  0  0  0  0  0  0  0  0  0  0
   27.1753    2.1956   53.1673 C   0  0  0  0  0  0  0  0  0  0  0  0
   25.7639    2.1607   52.8601 C   0  0  0  0  0  0  0  0  0  0  0  0
   25.0033    1.1778   53.3204 C   0  0  0  0  0  0  0  0  0  0  0  0
   23.5137    1.1132   53.0140 C   0  0  0  0  0  0  0  0  0  0  0  0
   22.8656    0.1281   53.5022 N   0  0  0  0  0  0  0  0  0  0  0  0
   23.5151   -0.9250   54.3376 C   0  0  0  0  0  0  0  0  0  0  0  0
   24.7658   -0.8863   54.6049 N   0  0  0  0  0  0  0  0  0  0  0  0
   25.6270    0.1292   54.1470 C   0  0  0  0  0  0  0  0  0  0  0  0
   26.9566    0.1630   54.4360 C   0  0  0  0  0  0  0  0  0  0  0  0
   21.8852    0.0588   53.3180 Xx  0  0  0  0  0  0  0  0  0  0  0  0
   25.1523   -1.6160   55.1691 Xx  0  0  0  0  0  0  0  0  0  0  0  0
   29.8118    2.4776   54.7962 O   0  0  0  0  0  0  0  0  0  0  0  0
   29.2036    1.5000   54.0933 N   0  0  0  0  0  0  0  0  0  0  0  0
   29.8858    0.7136   53.5529 O   0  0  0  0  0  0  0  0  0  0  0  0
   30.8809    0.7828   53.6231 Xx  0  0  0  0  0  0  0  0  0  0  0  0
   29.4722   -0.0261   53.0220 Xx  0  0  0  0  0  0  0  0  0  0  0  0
   30.7472    2.5108   54.8398 H   0  0  0  0  0  0  0  0  0  0  0  0
   22.8886    2.1715   52.1808 N   0  0  0  0  0  0  0  0  0  0  0  0
   22.6256    3.0726   52.6415 H   0  0  0  0  0  0  0  0  0  0  0  0
   22.6134    2.0377   50.7461 C   0  0  0  0  0  0  0  0  0  0  0  0
   23.2832    2.8542   49.9228 C   0  0  0  0  0  0  0  0  0  0  0  0
   23.0788    2.7973   48.4835 C   0  0  0  0  0  0  0  0  0  0  0  0
   22.2214    1.9323   47.9549 C   0  0  0  0  0  0  0  0  0  0  0  0
   21.4622    1.0180   48.7901 C   0  0  0  0  0  0  0  0  0  0  0  0
   21.6275    1.0441   50.1288 C   0  0  0  0  0  0  0  0  0  0  0  0
 13 14  1  0  0  0
 14 15  2  0  0  0
 14  1  1  0  0  0
  1  2  2  0  0  0
  2  3  1  0  0  0
  3  4  2  0  0  0
  4  5  1  0  0  0
  5 19  1  0  0  0
 19 21  1  0  0  0
 21 22  2  0  0  0
 22 23  1  0  0  0
 23 24  2  0  0  0
 24 25  1  0  0  0
 25 26  2  0  0  0
 21 26  1  0  0  0
  5  6  2  0  0  0
  6  7  1  0  0  0
  7  8  2  0  0  0
  8  9  1  0  0  0
  4  9  1  0  0  0
  9 10  2  0  0  0
  1 10  1  0  0  0
 19 20  1  0  0  0
 15 16  1  0  0  0
 15 17  1  0  0  0
  6 11  1  0  0  0
  8 12  1  0  0  0
 13 18  1  0  0  0
M  END
> <minimizedAffinity>
-7.51315

$$$$
CHEMBL91980


 22 24  0  0  0  0  0  0  0  0999 V2000
   28.7320   -3.1235   53.0534 N   0  0  0  0  0  0  0  0  0  0  0  0
   28.2407   -2.0154   53.1027 C   0  0  0  0  0  0  0  0  0  0  0  0
   26.9424   -1.8531   52.8426 C   0  0  0  0  0  0  0  0  0  0  0  0
   26.4041   -0.5816   52.9047 C   0  0  0  0  0  0  0  0  0  0  0  0
   27.2003    0.4158   53.2191 C   0  0  0  0  0  0  0  0  0  0  0  0
   26.6874    1.6500   53.2814 C   0  0  0  0  0  0  0  0  0  0  0  0
   27.4694    2.6143   53.5880 N   0  0  0  0  0  0  0  0  0  0  0  0
   28.9041    2.3152   53.8585 C   0  0  0  0  0  0  0  0  0  0  0  0
   29.3522    1.1495   53.7918 N   0  0  0  0  0  0  0  0  0  0  0  0
   28.5766    0.2076   53.4897 C   0  0  0  0  0  0  0  0  0  0  0  0
   29.0782   -0.9722   53.4326 C   0  0  0  0  0  0  0  0  0  0  0  0
   28.1855   -3.8863   52.8266 H   0  0  0  0  0  0  0  0  0  0  0  0
   29.7648   -3.3499   53.2467 H   0  0  0  0  0  0  0  0  0  0  0  0
   25.2886    1.7484   52.9904 N   0  0  0  0  0  0  0  0  0  0  0  0
   24.6322    1.4709   53.7475 H   0  0  0  0  0  0  0  0  0  0  0  0
   24.8016    2.2065   51.7191 C   0  0  0  0  0  0  0  0  0  0  0  0
   25.5167    3.0713   50.9873 C   0  0  0  0  0  0  0  0  0  0  0  0
   25.0060    3.5318   49.6877 C   0  0  0  0  0  0  0  0  0  0  0  0
   23.8348    3.0926   49.2346 C   0  0  0  0  0  0  0  0  0  0  0  0
   23.0510    2.1572   50.0155 C   0  0  0  0  0  0  0  0  0  0  0  0
   21.2341    1.4612   49.3374 I   0  0  0  0  0  0  0  0  0  0  0  0
   23.5020    1.7337   51.1916 C   0  0  0  0  0  0  0  0  0  0  0  0
  1  2  1  0  0  0
  2  3  2  0  0  0
  3  4  1  0  0  0
  4  5  2  0  0  0
  5  6  1  0  0  0
  6 14  1  0  0  0
 14 16  1  0  0  0
 16 17  2  0  0  0
 17 18  1  0  0  0
 18 19  2  0  0  0
 19 20  1  0  0  0
 20 21  1  0  0  0
 20 22  2  0  0  0
 16 22  1  0  0  0
  6  7  2  0  0  0
  7  8  1  0  0  0
  8  9  2  0  0  0
  9 10  1  0  0  0
  5 10  1  0  0  0
 10 11  2  0  0  0
  2 11  1  0  0  0
  1 12  1  0  0  0
  1 13  1  0  0  0
 14 15  1  0  0  0
M  END
> <minimizedAffinity>
-8.27313

$$$$
CHEMBL92174


 23 25  0  0  0  0  0  0  0  0999 V2000
   20.1061   -0.2860   52.8236 C   0  0  0  0  0  0  0  0  0  0  0  0
   20.6153   -0.7644   53.9318 C   0  0  0  0  0  0  0  0  0  0  0  0
   21.8952   -0.7967   54.1938 C   0  0  0  0  0  0  0  0  0  0  0  0
   22.1871   -1.3029   55.2997 N   0  0  0  0  0  0  0  0  0  0  0  0
   23.4317   -1.4315   55.6776 C   0  0  0  0  0  0  0  0  0  0  0  0
   24.3779   -1.0795   54.8836 N   0  0  0  0  0  0  0  0  0  0  0  0
   24.1452   -0.5184   53.5756 C   0  0  0  0  0  0  0  0  0  0  0  0
   22.8528   -0.3337   53.2314 C   0  0  0  0  0  0  0  0  0  0  0  0
   22.3232    0.2980   51.9619 C   0  0  0  0  0  0  0  0  0  0  0  0
   21.0019    0.3544   51.6700 C   0  0  0  0  0  0  0  0  0  0  0  0
   17.9481   -1.2441   53.2609 C   0  0  0  0  0  0  0  0  0  0  0  0
   18.8045   -0.2840   52.5819 O   0  0  0  0  0  0  0  0  0  0  0  0
   25.4536   -0.2241   52.8205 N   0  0  0  0  0  0  0  0  0  0  0  0
   25.3826    0.5694   52.1200 H   0  0  0  0  0  0  0  0  0  0  0  0
   26.8171   -0.8041   52.9513 C   0  0  0  0  0  0  0  0  0  0  0  0
   27.2498   -2.0765   52.7752 C   0  0  0  0  0  0  0  0  0  0  0  0
   28.7097   -2.4041   52.9889 C   0  0  0  0  0  0  0  0  0  0  0  0
   29.5475   -1.4431   53.3618 C   0  0  0  0  0  0  0  0  0  0  0  0
   29.0646   -0.0945   53.5667 C   0  0  0  0  0  0  0  0  0  0  0  0
   27.7813    0.1926   53.3713 C   0  0  0  0  0  0  0  0  0  0  0  0
   27.1513    1.9437   53.6477 Br  0  0  0  0  0  0  0  0  0  0  0  0
   20.6655    1.0423   50.2477 O   0  0  0  0  0  0  0  0  0  0  0  0
   19.7765    2.1733   49.9085 C   0  0  0  0  0  0  0  0  0  0  0  0
 11 12  1  0  0  0
 12  1  1  0  0  0
  1  2  2  0  0  0
  2  3  1  0  0  0
  3  4  2  0  0  0
  4  5  1  0  0  0
  5  6  2  0  0  0
  6  7  1  0  0  0
  7 13  1  0  0  0
 13 15  1  0  0  0
 15 16  2  0  0  0
 16 17  1  0  0  0
 17 18  2  0  0  0
 18 19  1  0  0  0
 19 20  2  0  0  0
 15 20  1  0  0  0
 20 21  1  0  0  0
  7  8  2  0  0  0
  3  8  1  0  0  0
  8  9  1  0  0  0
  9 10  2  0  0  0
  1 10  1  0  0  0
 10 22  1  0  0  0
 22 23  1  0  0  0
 13 14  1  0  0  0
M  END
> <minimizedAffinity>
-7.78387

$$$$
CHEMBL92398


 20 22  0  0  0  0  0  0  0  0999 V2000
   20.4005   -0.4496   53.2778 C   0  0  0  0  0  0  0  0  0  0  0  0
   21.2244   -1.0120   54.1552 C   0  0  0  0  0  0  0  0  0  0  0  0
   22.6080   -0.7484   54.1087 C   0  0  0  0  0  0  0  0  0  0  0  0
   23.0733    0.0634   53.1830 C   0  0  0  0  0  0  0  0  0  0  0  0
   24.4215    0.3279   53.1280 C   0  0  0  0  0  0  0  0  0  0  0  0
   24.8386    1.1213   52.2155 N   0  0  0  0  0  0  0  0  0  0  0  0
   23.9213    1.7523   51.2326 C   0  0  0  0  0  0  0  0  0  0  0  0
   22.6880    1.5107   51.2825 N   0  0  0  0  0  0  0  0  0  0  0  0
   22.2003    0.6825   52.2240 C   0  0  0  0  0  0  0  0  0  0  0  0
   20.9155    0.4426   52.2614 C   0  0  0  0  0  0  0  0  0  0  0  0
   18.2754   -0.4721   52.1971 C   0  0  0  0  0  0  0  0  0  0  0  0
   19.0973   -0.7406   53.3756 O   0  0  0  0  0  0  0  0  0  0  0  0
   25.3307   -0.3070   54.1142 N   0  0  0  0  0  0  0  0  0  0  0  0
   24.9218   -0.6869   54.9968 H   0  0  0  0  0  0  0  0  0  0  0  0
   26.7740   -0.4382   53.9324 C   0  0  0  0  0  0  0  0  0  0  0  0
   27.2005   -1.4534   53.1702 C   0  0  0  0  0  0  0  0  0  0  0  0
   28.6202   -1.6643   52.9319 C   0  0  0  0  0  0  0  0  0  0  0  0
   29.5237   -0.8521   53.4670 C   0  0  0  0  0  0  0  0  0  0  0  0
   29.1282    0.2678   54.3035 C   0  0  0  0  0  0  0  0  0  0  0  0
   27.8173    0.4906   54.5438 C   0  0  0  0  0  0  0  0  0  0  0  0
 11 12  1  0  0  0
 12  1  1  0  0  0
  1  2  2  0  0  0
  2  3  1  0  0  0
  3  4  2  0  0  0
  4  5  1  0  0  0
  5 13  1  0  0  0
 13 15  1  0  0  0
 15 16  2  0  0  0
 16 17  1  0  0  0
 17 18  2  0  0  0
 18 19  1  0  0  0
 19 20  2  0  0  0
 15 20  1  0  0  0
  5  6  2  0  0  0
  6  7  1  0  0  0
  7  8  2  0  0  0
  8  9  1  0  0  0
  4  9  1  0  0  0
  9 10  2  0  0  0
  1 10  1  0  0  0
 13 14  1  0  0  0
M  END
> <minimizedAffinity>
-7.18332

$$$$
CHEMBL92709


 24 26  0  0  0  0  0  0  0  0999 V2000
   25.3815   -0.4841   54.8168 C   0  0  0  0  0  0  0  0  0  0  0  0
   26.5226    0.1494   54.9420 C   0  0  0  0  0  0  0  0  0  0  0  0
   27.0082    0.9666   54.0420 C   0  0  0  0  0  0  0  0  0  0  0  0
   28.1017    1.4924   54.3481 N   0  0  0  0  0  0  0  0  0  0  0  0
   28.6776    2.3640   53.5571 C   0  0  0  0  0  0  0  0  0  0  0  0
   28.0874    2.7325   52.4769 N   0  0  0  0  0  0  0  0  0  0  0  0
   26.8113    2.2148   52.0612 C   0  0  0  0  0  0  0  0  0  0  0  0
   26.2694    1.2612   52.8486 C   0  0  0  0  0  0  0  0  0  0  0  0
   24.9863    0.4929   52.6078 C   0  0  0  0  0  0  0  0  0  0  0  0
   24.4660   -0.3633   53.5161 C   0  0  0  0  0  0  0  0  0  0  0  0
   25.7620   -0.6624   57.0780 C   0  0  0  0  0  0  0  0  0  0  0  0
   25.2842   -1.1241   55.9357 O   0  0  0  0  0  0  0  0  0  0  0  0
   26.3098    2.8673   50.7535 N   0  0  0  0  0  0  0  0  0  0  0  0
   27.0220    2.9656   50.0115 H   0  0  0  0  0  0  0  0  0  0  0  0
   24.9632    3.4976   50.4214 C   0  0  0  0  0  0  0  0  0  0  0  0
   24.0672    2.6840   49.8293 C   0  0  0  0  0  0  0  0  0  0  0  0
   22.7233    3.1646   49.4355 C   0  0  0  0  0  0  0  0  0  0  0  0
   21.4884    1.9688   48.5977 Br  0  0  0  0  0  0  0  0  0  0  0  0
   22.3720    4.4250   49.6619 C   0  0  0  0  0  0  0  0  0  0  0  0
   23.3049    5.3567   50.2892 C   0  0  0  0  0  0  0  0  0  0  0  0
   22.7646    7.1779   50.6104 Br  0  0  0  0  0  0  0  0  0  0  0  0
   24.5294    4.9481   50.6413 C   0  0  0  0  0  0  0  0  0  0  0  0
   23.0706   -1.0338   53.0689 O   0  0  0  0  0  0  0  0  0  0  0  0
   21.8126   -1.2071   53.8078 C   0  0  0  0  0  0  0  0  0  0  0  0
 11 12  1  0  0  0
 12  1  1  0  0  0
  1  2  2  0  0  0
  2  3  1  0  0  0
  3  4  2  0  0  0
  4  5  1  0  0  0
  5  6  2  0  0  0
  6  7  1  0  0  0
  7 13  1  0  0  0
 13 15  1  0  0  0
 15 16  2  0  0  0
 16 17  1  0  0  0
 17 18  1  0  0  0
 17 19  2  0  0  0
 19 20  1  0  0  0
 20 21  1  0  0  0
 20 22  2  0  0  0
 15 22  1  0  0  0
  7  8  2  0  0  0
  3  8  1  0  0  0
  8  9  1  0  0  0
  9 10  2  0  0  0
  1 10  1  0  0  0
 10 23  1  0  0  0
 23 24  1  0  0  0
 13 14  1  0  0  0
M  END
> <minimizedAffinity>
-7.27427

$$$$
CHEMBL92825


 19 21  0  0  0  0  0  0  0  0999 V2000
   26.6128    0.8629   52.8522 C   0  0  0  0  0  0  0  0  0  0  0  0
   26.9803    2.0557   53.1335 N   0  0  0  0  0  0  0  0  0  0  0  0
   28.3642    2.3692   53.6141 C   0  0  0  0  0  0  0  0  0  0  0  0
   29.2305    1.4356   53.7585 N   0  0  0  0  0  0  0  0  0  0  0  0
   28.9454    0.1174   53.4859 C   0  0  0  0  0  0  0  0  0  0  0  0
   29.8756   -0.8327   53.6483 C   0  0  0  0  0  0  0  0  0  0  0  0
   29.5496   -2.2359   53.3510 C   0  0  0  0  0  0  0  0  0  0  0  0
   28.3209   -2.5249   52.9228 C   0  0  0  0  0  0  0  0  0  0  0  0
   27.3127   -1.4835   52.7485 C   0  0  0  0  0  0  0  0  0  0  0  0
   27.6096   -0.2188   53.0174 C   0  0  0  0  0  0  0  0  0  0  0  0
   25.2498    0.5557   52.3790 N   0  0  0  0  0  0  0  0  0  0  0  0
   25.0173    0.7170   51.3710 H   0  0  0  0  0  0  0  0  0  0  0  0
   19.8792    0.0762   52.9641 I   0  0  0  0  0  0  0  0  0  0  0  0
   21.8099   -0.2499   53.6203 C   0  0  0  0  0  0  0  0  0  0  0  0
   22.0062   -0.8996   54.7589 C   0  0  0  0  0  0  0  0  0  0  0  0
   23.3381   -1.1509   55.2574 C   0  0  0  0  0  0  0  0  0  0  0  0
   24.4064   -0.7175   54.5533 C   0  0  0  0  0  0  0  0  0  0  0  0
   24.1868    0.0327   53.2391 C   0  0  0  0  0  0  0  0  0  0  0  0
   22.9284    0.2325   52.8335 C   0  0  0  0  0  0  0  0  0  0  0  0
 13 14  1  0  0  0
 14 15  2  0  0  0
 15 16  1  0  0  0
 16 17  2  0  0  0
 17 18  1  0  0  0
 18 11  1  0  0  0
 11  1  1  0  0  0
  1  2  2  0  0  0
  2  3  1  0  0  0
  3  4  2  0  0  0
  4  5  1  0  0  0
  5  6  2  0  0  0
  6  7  1  0  0  0
  7  8  2  0  0  0
  8  9  1  0  0  0
  9 10  2  0  0  0
  1 10  1  0  0  0
  5 10  1  0  0  0
 18 19  2  0  0  0
 14 19  1  0  0  0
 11 12  1  0  0  0
M  END
> <minimizedAffinity>
-7.84193

$$$$
CHEMBL93032


 23 25  0  0  0  0  0  0  0  0999 V2000
   24.7224   -1.5033   55.5310 O   0  0  0  0  0  0  0  0  0  0  0  0
   25.2258   -0.6159   54.7843 C   0  0  0  0  0  0  0  0  0  0  0  0
   26.4057   -0.0354   55.0830 C   0  0  0  0  0  0  0  0  0  0  0  0
   26.9475    0.9436   54.1915 C   0  0  0  0  0  0  0  0  0  0  0  0
   28.0763    1.5046   54.4566 N   0  0  0  0  0  0  0  0  0  0  0  0
   28.5993    2.3978   53.6127 C   0  0  0  0  0  0  0  0  0  0  0  0
   28.0040    2.6585   52.5024 N   0  0  0  0  0  0  0  0  0  0  0  0
   26.7654    2.0713   52.0836 C   0  0  0  0  0  0  0  0  0  0  0  0
   26.1957    1.2348   52.9553 C   0  0  0  0  0  0  0  0  0  0  0  0
   24.8808    0.5991   52.7617 C   0  0  0  0  0  0  0  0  0  0  0  0
   24.4134   -0.3055   53.6253 C   0  0  0  0  0  0  0  0  0  0  0  0
   23.0648   -1.0171   53.4392 O   0  0  0  0  0  0  0  0  0  0  0  0
   25.2723   -1.7383   56.3529 H   0  0  0  0  0  0  0  0  0  0  0  0
   22.6642   -0.6723   52.5651 H   0  0  0  0  0  0  0  0  0  0  0  0
   26.3030    2.5468   50.6784 N   0  0  0  0  0  0  0  0  0  0  0  0
   25.9274    1.7860   50.0875 H   0  0  0  0  0  0  0  0  0  0  0  0
   26.1779    3.9247   50.0835 C   0  0  0  0  0  0  0  0  0  0  0  0
   27.1190    4.2241   49.1735 C   0  0  0  0  0  0  0  0  0  0  0  0
   27.1370    5.5120   48.4878 C   0  0  0  0  0  0  0  0  0  0  0  0
   26.2163    6.4302   48.7481 C   0  0  0  0  0  0  0  0  0  0  0  0
   25.1586    6.1664   49.7135 C   0  0  0  0  0  0  0  0  0  0  0  0
   23.8486    7.5244   50.0618 Br  0  0  0  0  0  0  0  0  0  0  0  0
   25.1072    4.9875   50.3469 C   0  0  0  0  0  0  0  0  0  0  0  0
  1  2  1  0  0  0
  2  3  2  0  0  0
  3  4  1  0  0  0
  4  5  2  0  0  0
  5  6  1  0  0  0
  6  7  2  0  0  0
  7  8  1  0  0  0
  8 15  1  0  0  0
 15 17  1  0  0  0
 17 18  2  0  0  0
 18 19  1  0  0  0
 19 20  2  0  0  0
 20 21  1  0  0  0
 21 22  1  0  0  0
 21 23  2  0  0  0
 17 23  1  0  0  0
  8  9  2  0  0  0
  4  9  1  0  0  0
  9 10  1  0  0  0
 10 11  2  0  0  0
  2 11  1  0  0  0
 11 12  1  0  0  0
  1 13  1  0  0  0
 15 16  1  0  0  0
 12 14  1  0  0  0
M  END
> <minimizedAffinity>
-7.91922

$$$$
CHEMBL93051


 22 25  0  0  0  0  0  0  0  0999 V2000
   24.1225    0.5725   53.1466 C   0  0  0  0  0  0  0  0  0  0  0  0
   23.6236    1.7642   53.1371 N   0  0  0  0  0  0  0  0  0  0  0  0
   24.4394    3.0133   53.2137 C   0  0  0  0  0  0  0  0  0  0  0  0
   25.7018    2.9590   53.2941 N   0  0  0  0  0  0  0  0  0  0  0  0
   26.3907    1.6719   53.3141 C   0  0  0  0  0  0  0  0  0  0  0  0
   27.7251    1.5873   53.3986 C   0  0  0  0  0  0  0  0  0  0  0  0
   28.3497    0.2472   53.4134 C   0  0  0  0  0  0  0  0  0  0  0  0
   29.6385   -0.0220   53.4915 O   0  0  0  0  0  0  0  0  0  0  0  0
   29.8761   -1.4595   53.4794 C   0  0  0  0  0  0  0  0  0  0  0  0
   28.5539   -1.9793   53.3840 O   0  0  0  0  0  0  0  0  0  0  0  0
   27.6675   -0.8592   53.3481 C   0  0  0  0  0  0  0  0  0  0  0  0
   26.1873   -0.8034   53.2536 C   0  0  0  0  0  0  0  0  0  0  0  0
   25.5853    0.4108   53.2380 C   0  0  0  0  0  0  0  0  0  0  0  0
   23.1667   -0.5905   53.0627 N   0  0  0  0  0  0  0  0  0  0  0  0
   23.5659   -1.5623   53.1479 H   0  0  0  0  0  0  0  0  0  0  0  0
   19.3648    1.2032   49.8694 Br  0  0  0  0  0  0  0  0  0  0  0  0
   19.8992    0.3100   51.4657 C   0  0  0  0  0  0  0  0  0  0  0  0
   18.9708   -0.1490   52.2917 C   0  0  0  0  0  0  0  0  0  0  0  0
   19.3253   -0.8314   53.5119 C   0  0  0  0  0  0  0  0  0  0  0  0
   20.6307   -1.0082   53.8224 C   0  0  0  0  0  0  0  0  0  0  0  0
   21.7106   -0.4790   52.8699 C   0  0  0  0  0  0  0  0  0  0  0  0
   21.3082    0.1436   51.7573 C   0  0  0  0  0  0  0  0  0  0  0  0
 16 17  1  0  0  0
 17 18  2  0  0  0
 18 19  1  0  0  0
 19 20  2  0  0  0
 20 21  1  0  0  0
 21 14  1  0  0  0
 14  1  1  0  0  0
  1  2  2  0  0  0
  2  3  1  0  0  0
  3  4  2  0  0  0
  4  5  1  0  0  0
  5  6  2  0  0  0
  6  7  1  0  0  0
  7  8  1  0  0  0
  8  9  1  0  0  0
  9 10  1  0  0  0
 10 11  1  0  0  0
  7 11  2  0  0  0
 11 12  1  0  0  0
 12 13  2  0  0  0
  1 13  1  0  0  0
  5 13  1  0  0  0
 21 22  2  0  0  0
 17 22  1  0  0  0
 14 15  1  0  0  0
M  END
> <minimizedAffinity>
-8.05053

$$$$
CHEMBL93295


 26 28  0  0  0  0  0  0  0  0999 V2000
   26.1779    3.0289   51.2251 C   0  0  0  0  0  0  0  0  0  0  0  0
   26.7740    1.8948   51.4405 C   0  0  0  0  0  0  0  0  0  0  0  0
   26.2402    0.9076   52.1163 C   0  0  0  0  0  0  0  0  0  0  0  0
   26.9600   -0.1127   52.2088 N   0  0  0  0  0  0  0  0  0  0  0  0
   26.5391   -1.1977   52.8250 C   0  0  0  0  0  0  0  0  0  0  0  0
   27.3955   -2.3304   52.9598 N   0  0  0  0  0  0  0  0  0  0  0  0
   25.3355   -1.2313   53.2920 N   0  0  0  0  0  0  0  0  0  0  0  0
   24.4050   -0.1118   53.1991 C   0  0  0  0  0  0  0  0  0  0  0  0
   24.8976    1.0157   52.6303 C   0  0  0  0  0  0  0  0  0  0  0  0
   24.1978    2.3467   52.4793 C   0  0  0  0  0  0  0  0  0  0  0  0
   24.7341    3.3813   51.7940 C   0  0  0  0  0  0  0  0  0  0  0  0
   28.3147   -2.3030   52.5876 H   0  0  0  0  0  0  0  0  0  0  0  0
   27.0729   -3.1869   53.4419 H   0  0  0  0  0  0  0  0  0  0  0  0
   26.7600    4.1396   49.3065 C   0  0  0  0  0  0  0  0  0  0  0  0
   27.0369    3.6550   50.5035 O   0  0  0  0  0  0  0  0  0  0  0  0
   23.0224   -0.4401   53.7928 N   0  0  0  0  0  0  0  0  0  0  0  0
   23.0246   -0.8829   54.7290 H   0  0  0  0  0  0  0  0  0  0  0  0
   21.6461   -0.3005   53.1838 C   0  0  0  0  0  0  0  0  0  0  0  0
   20.6596   -0.8854   53.8796 C   0  0  0  0  0  0  0  0  0  0  0  0
   19.2723   -0.8477   53.4193 C   0  0  0  0  0  0  0  0  0  0  0  0
   18.9486   -0.2278   52.2908 C   0  0  0  0  0  0  0  0  0  0  0  0
   19.9698    0.4157   51.4810 C   0  0  0  0  0  0  0  0  0  0  0  0
   19.4697    1.3115   49.8558 Br  0  0  0  0  0  0  0  0  0  0  0  0
   21.2492    0.3854   51.8685 C   0  0  0  0  0  0  0  0  0  0  0  0
   23.7907    4.6857   51.7239 O   0  0  0  0  0  0  0  0  0  0  0  0
   23.6190    5.6873   50.6618 C   0  0  0  0  0  0  0  0  0  0  0  0
 14 15  1  0  0  0
 15  1  1  0  0  0
  1  2  2  0  0  0
  2  3  1  0  0  0
  3  4  2  0  0  0
  4  5  1  0  0  0
  5  6  1  0  0  0
  5  7  2  0  0  0
  7  8  1  0  0  0
  8 16  1  0  0  0
 16 18  1  0  0  0
 18 19  2  0  0  0
 19 20  1  0  0  0
 20 21  2  0  0  0
 21 22  1  0  0  0
 22 23  1  0  0  0
 22 24  2  0  0  0
 18 24  1  0  0  0
  8  9  2  0  0  0
  3  9  1  0  0  0
  9 10  1  0  0  0
 10 11  2  0  0  0
  1 11  1  0  0  0
 11 25  1  0  0  0
 25 26  1  0  0  0
  6 12  1  0  0  0
  6 13  1  0  0  0
 16 17  1  0  0  0
M  END
> <minimizedAffinity>
-7.72128

$$$$
CHEMBL93302


 21 23  0  0  0  0  0  0  0  0999 V2000
   29.5575    1.7337   53.2064 O   0  0  0  0  0  0  0  0  0  0  0  0
   28.4754    1.1520   53.4223 C   0  0  0  0  0  0  0  0  0  0  0  0
   27.5699    0.8417   52.4861 C   0  0  0  0  0  0  0  0  0  0  0  0
   26.3744    0.1710   52.8928 C   0  0  0  0  0  0  0  0  0  0  0  0
   26.2270   -0.1073   54.1738 C   0  0  0  0  0  0  0  0  0  0  0  0
   25.1062   -0.7556   54.6542 C   0  0  0  0  0  0  0  0  0  0  0  0
   25.0722   -0.9750   55.9135 N   0  0  0  0  0  0  0  0  0  0  0  0
   26.1556   -0.5646   56.8058 C   0  0  0  0  0  0  0  0  0  0  0  0
   27.1596    0.0190   56.3569 N   0  0  0  0  0  0  0  0  0  0  0  0
   27.2435    0.2599   55.1104 C   0  0  0  0  0  0  0  0  0  0  0  0
   28.3047    0.8588   54.7275 C   0  0  0  0  0  0  0  0  0  0  0  0
   29.4907    2.3861   52.5093 H   0  0  0  0  0  0  0  0  0  0  0  0
   24.0163   -1.1683   53.7406 N   0  0  0  0  0  0  0  0  0  0  0  0
   24.0816   -2.0492   53.2043 H   0  0  0  0  0  0  0  0  0  0  0  0
   22.8414   -0.3426   53.5928 C   0  0  0  0  0  0  0  0  0  0  0  0
   21.7842   -0.4989   54.3989 C   0  0  0  0  0  0  0  0  0  0  0  0
   20.5999    0.3586   54.2276 C   0  0  0  0  0  0  0  0  0  0  0  0
   20.5790    1.2882   53.2735 C   0  0  0  0  0  0  0  0  0  0  0  0
   21.7161    1.4608   52.4015 C   0  0  0  0  0  0  0  0  0  0  0  0
   21.7464    2.7650   51.0263 Br  0  0  0  0  0  0  0  0  0  0  0  0
   22.7768    0.6972   52.5500 C   0  0  0  0  0  0  0  0  0  0  0  0
  1  2  1  0  0  0
  2  3  2  0  0  0
  3  4  1  0  0  0
  4  5  2  0  0  0
  5  6  1  0  0  0
  6 13  1  0  0  0
 13 15  1  0  0  0
 15 16  2  0  0  0
 16 17  1  0  0  0
 17 18  2  0  0  0
 18 19  1  0  0  0
 19 20  1  0  0  0
 19 21  2  0  0  0
 15 21  1  0  0  0
  6  7  2  0  0  0
  7  8  1  0  0  0
  8  9  2  0  0  0
  9 10  1  0  0  0
  5 10  1  0  0  0
 10 11  2  0  0  0
  2 11  1  0  0  0
  1 12  1  0  0  0
 13 14  1  0  0  0
M  END
> <minimizedAffinity>
-7.45785

$$$$
CHEMBL93635


 21 23  0  0  0  0  0  0  0  0999 V2000
   26.4783    0.7141   54.3437 C   0  0  0  0  0  0  0  0  0  0  0  0
   25.7565   -0.2122   53.7350 C   0  0  0  0  0  0  0  0  0  0  0  0
   24.6183    0.1035   52.8957 C   0  0  0  0  0  0  0  0  0  0  0  0
   24.2599    1.3625   52.7102 C   0  0  0  0  0  0  0  0  0  0  0  0
   23.0793    1.7367   51.8428 C   0  0  0  0  0  0  0  0  0  0  0  0
   22.8335    2.9829   51.7414 N   0  0  0  0  0  0  0  0  0  0  0  0
   23.5963    4.0370   52.3899 C   0  0  0  0  0  0  0  0  0  0  0  0
   24.6024    3.7548   53.1315 N   0  0  0  0  0  0  0  0  0  0  0  0
   25.0374    2.4300   53.3705 C   0  0  0  0  0  0  0  0  0  0  0  0
   26.1068    2.1317   54.1589 C   0  0  0  0  0  0  0  0  0  0  0  0
   27.5828    0.1817   55.1427 N   0  0  0  0  0  0  0  0  0  0  0  0
   27.3076   -0.0112   56.2659 O   0  0  0  0  0  0  0  0  0  0  0  0
   22.2565    0.7007   51.1502 N   0  0  0  0  0  0  0  0  0  0  0  0
   22.5575    0.2844   50.2490 H   0  0  0  0  0  0  0  0  0  0  0  0
   21.0102    0.2630   51.7440 C   0  0  0  0  0  0  0  0  0  0  0  0
   20.9730   -0.2380   52.9835 C   0  0  0  0  0  0  0  0  0  0  0  0
   19.6908   -0.6739   53.5583 C   0  0  0  0  0  0  0  0  0  0  0  0
   18.5699   -0.5701   52.8466 C   0  0  0  0  0  0  0  0  0  0  0  0
   18.6057   -0.0315   51.5122 C   0  0  0  0  0  0  0  0  0  0  0  0
   17.1970    0.1263   50.5493 Cl  0  0  0  0  0  0  0  0  0  0  0  0
   19.7453    0.3584   50.9950 C   0  0  0  0  0  0  0  0  0  0  0  0
 11 12  2  0  0  0
 11  1  1  0  0  0
  1  2  2  0  0  0
  2  3  1  0  0  0
  3  4  2  0  0  0
  4  5  1  0  0  0
  5 13  1  0  0  0
 13 15  1  0  0  0
 15 16  2  0  0  0
 16 17  1  0  0  0
 17 18  2  0  0  0
 18 19  1  0  0  0
 19 20  1  0  0  0
 19 21  2  0  0  0
 15 21  1  0  0  0
  5  6  2  0  0  0
  6  7  1  0  0  0
  7  8  2  0  0  0
  8  9  1  0  0  0
  4  9  1  0  0  0
  9 10  2  0  0  0
  1 10  1  0  0  0
 13 14  1  0  0  0
M  END
> <minimizedAffinity>
-7.23129

$$$$
CHEMBL93966


 22 24  0  0  0  0  0  0  0  0999 V2000
   28.7092   -3.2174   53.0871 N   0  0  0  0  0  0  0  0  0  0  0  0
   28.3066   -2.0733   53.0928 C   0  0  0  0  0  0  0  0  0  0  0  0
   27.0898   -1.7989   52.6203 C   0  0  0  0  0  0  0  0  0  0  0  0
   26.6481   -0.4908   52.6347 C   0  0  0  0  0  0  0  0  0  0  0  0
   27.4525    0.4306   53.1169 C   0  0  0  0  0  0  0  0  0  0  0  0
   27.0374    1.6992   53.1365 C   0  0  0  0  0  0  0  0  0  0  0  0
   27.8293    2.5867   53.6081 N   0  0  0  0  0  0  0  0  0  0  0  0
   29.1602    2.1752   54.1077 C   0  0  0  0  0  0  0  0  0  0  0  0
   29.5239    0.9775   54.0773 N   0  0  0  0  0  0  0  0  0  0  0  0
   28.7415    0.1052   53.6120 C   0  0  0  0  0  0  0  0  0  0  0  0
   29.1531   -1.1103   53.5991 C   0  0  0  0  0  0  0  0  0  0  0  0
   28.1503   -3.9230   52.7420 H   0  0  0  0  0  0  0  0  0  0  0  0
   29.6715   -3.5350   53.4453 H   0  0  0  0  0  0  0  0  0  0  0  0
   25.7206    1.9338   52.6155 N   0  0  0  0  0  0  0  0  0  0  0  0
   24.9507    1.4583   53.0775 H   0  0  0  0  0  0  0  0  0  0  0  0
   25.4815    2.7886   51.5047 C   0  0  0  0  0  0  0  0  0  0  0  0
   24.3007    3.3985   51.3278 C   0  0  0  0  0  0  0  0  0  0  0  0
   24.0965    4.2776   50.1601 C   0  0  0  0  0  0  0  0  0  0  0  0
   25.0857    4.4604   49.2886 C   0  0  0  0  0  0  0  0  0  0  0  0
   26.3514    3.7937   49.4972 C   0  0  0  0  0  0  0  0  0  0  0  0
   27.3643    3.9200   48.6945 F   0  0  0  0  0  0  0  0  0  0  0  0
   26.5323    3.0108   50.5377 C   0  0  0  0  0  0  0  0  0  0  0  0
  1  2  1  0  0  0
  2  3  2  0  0  0
  3  4  1  0  0  0
  4  5  2  0  0  0
  5  6  1  0  0  0
  6 14  1  0  0  0
 14 16  1  0  0  0
 16 17  2  0  0  0
 17 18  1  0  0  0
 18 19  2  0  0  0
 19 20  1  0  0  0
 20 21  1  0  0  0
 20 22  2  0  0  0
 16 22  1  0  0  0
  6  7  2  0  0  0
  7  8  1  0  0  0
  8  9  2  0  0  0
  9 10  1  0  0  0
  5 10  1  0  0  0
 10 11  2  0  0  0
  2 11  1  0  0  0
  1 12  1  0  0  0
  1 13  1  0  0  0
 14 15  1  0  0  0
M  END
> <minimizedAffinity>
-8.39693

$$$$
CHEMBL94431


 23 25  0  0  0  0  0  0  0  0999 V2000
   20.3171   -0.4160   53.1999 C   0  0  0  0  0  0  0  0  0  0  0  0
   20.9449   -0.8919   54.2479 C   0  0  0  0  0  0  0  0  0  0  0  0
   22.2433   -0.8404   54.4099 C   0  0  0  0  0  0  0  0  0  0  0  0
   22.6767   -1.3684   55.4565 N   0  0  0  0  0  0  0  0  0  0  0  0
   23.9689   -1.4009   55.6806 C   0  0  0  0  0  0  0  0  0  0  0  0
   24.7989   -0.9265   54.8214 N   0  0  0  0  0  0  0  0  0  0  0  0
   24.4192   -0.3421   53.6274 C   0  0  0  0  0  0  0  0  0  0  0  0
   23.0857   -0.2551   53.3890 C   0  0  0  0  0  0  0  0  0  0  0  0
   22.4043    0.3849   52.1794 C   0  0  0  0  0  0  0  0  0  0  0  0
   21.0651    0.3297   51.9948 C   0  0  0  0  0  0  0  0  0  0  0  0
   18.1464   -0.7703   52.5190 C   0  0  0  0  0  0  0  0  0  0  0  0
   19.0827   -0.7116   53.4512 O   0  0  0  0  0  0  0  0  0  0  0  0
   25.6255    0.0960   52.8280 N   0  0  0  0  0  0  0  0  0  0  0  0
   25.4529    0.6963   52.0299 H   0  0  0  0  0  0  0  0  0  0  0  0
   26.9699   -0.0907   53.1895 C   0  0  0  0  0  0  0  0  0  0  0  0
   27.5718   -1.2543   52.9004 C   0  0  0  0  0  0  0  0  0  0  0  0
   28.9777   -1.4659   53.2560 C   0  0  0  0  0  0  0  0  0  0  0  0
   29.6478   -0.4950   53.8665 C   0  0  0  0  0  0  0  0  0  0  0  0
   28.9804    0.7650   54.1505 C   0  0  0  0  0  0  0  0  0  0  0  0
   29.5940    1.7397   54.7532 F   0  0  0  0  0  0  0  0  0  0  0  0
   27.7328    0.9562   53.8152 C   0  0  0  0  0  0  0  0  0  0  0  0
   20.5697    1.0029   50.6226 O   0  0  0  0  0  0  0  0  0  0  0  0
   21.1811    1.0165   49.2865 C   0  0  0  0  0  0  0  0  0  0  0  0
 11 12  1  0  0  0
 12  1  1  0  0  0
  1  2  2  0  0  0
  2  3  1  0  0  0
  3  4  2  0  0  0
  4  5  1  0  0  0
  5  6  2  0  0  0
  6  7  1  0  0  0
  7 13  1  0  0  0
 13 15  1  0  0  0
 15 16  2  0  0  0
 16 17  1  0  0  0
 17 18  2  0  0  0
 18 19  1  0  0  0
 19 20  1  0  0  0
 19 21  2  0  0  0
 15 21  1  0  0  0
  7  8  2  0  0  0
  3  8  1  0  0  0
  8  9  1  0  0  0
  9 10  2  0  0  0
  1 10  1  0  0  0
 10 22  1  0  0  0
 22 23  1  0  0  0
 13 14  1  0  0  0
M  END
> <minimizedAffinity>
-8.03897

$$$$
CHEMBL96065


 23 25  0  0  0  0  0  0  0  0999 V2000
   27.6501    1.2139   53.4108 C   0  0  0  0  0  0  0  0  0  0  0  0
   27.0739    0.3124   54.1675 C   0  0  0  0  0  0  0  0  0  0  0  0
   25.8034    0.0031   54.1010 C   0  0  0  0  0  0  0  0  0  0  0  0
   25.4347   -0.8697   54.9180 N   0  0  0  0  0  0  0  0  0  0  0  0
   24.1820   -1.2411   54.9870 C   0  0  0  0  0  0  0  0  0  0  0  0
   23.3032   -0.6662   54.2482 N   0  0  0  0  0  0  0  0  0  0  0  0
   23.6203    0.3726   53.3072 C   0  0  0  0  0  0  0  0  0  0  0  0
   24.9295    0.6930   53.1931 C   0  0  0  0  0  0  0  0  0  0  0  0
   25.5576    1.6842   52.2329 C   0  0  0  0  0  0  0  0  0  0  0  0
   26.8670    2.0159   52.2769 C   0  0  0  0  0  0  0  0  0  0  0  0
   29.4357    1.9592   54.3499 C   0  0  0  0  0  0  0  0  0  0  0  0
   28.9308    2.1781   53.2219 O   0  0  0  0  0  0  0  0  0  0  0  0
   22.3679    0.9023   52.6016 N   0  0  0  0  0  0  0  0  0  0  0  0
   21.5434    1.0042   53.2158 H   0  0  0  0  0  0  0  0  0  0  0  0
   22.1900    1.3966   51.2091 C   0  0  0  0  0  0  0  0  0  0  0  0
   21.5295    0.5675   50.3865 C   0  0  0  0  0  0  0  0  0  0  0  0
   21.2691    0.9285   48.9941 C   0  0  0  0  0  0  0  0  0  0  0  0
   21.6823    2.0926   48.5089 C   0  0  0  0  0  0  0  0  0  0  0  0
   22.3907    3.0356   49.3574 C   0  0  0  0  0  0  0  0  0  0  0  0
   23.0298    4.8455   48.5727 I   0  0  0  0  0  0  0  0  0  0  0  0
   22.6300    2.7375   50.6357 C   0  0  0  0  0  0  0  0  0  0  0  0
   27.2990    3.1255   51.1934 O   0  0  0  0  0  0  0  0  0  0  0  0
   26.5909    3.6342   50.0115 C   0  0  0  0  0  0  0  0  0  0  0  0
 11 12  1  0  0  0
 12  1  1  0  0  0
  1  2  2  0  0  0
  2  3  1  0  0  0
  3  4  2  0  0  0
  4  5  1  0  0  0
  5  6  2  0  0  0
  6  7  1  0  0  0
  7 13  1  0  0  0
 13 15  1  0  0  0
 15 16  2  0  0  0
 16 17  1  0  0  0
 17 18  2  0  0  0
 18 19  1  0  0  0
 19 20  1  0  0  0
 19 21  2  0  0  0
 15 21  1  0  0  0
  7  8  2  0  0  0
  3  8  1  0  0  0
  8  9  1  0  0  0
  9 10  2  0  0  0
  1 10  1  0  0  0
 10 22  1  0  0  0
 22 23  1  0  0  0
 13 14  1  0  0  0
M  END
> <minimizedAffinity>
-7.33341

$$$$
CHEMBL96489


 25 27  0  0  0  0  0  0  0  0999 V2000
   26.7083    1.0394   53.6511 C   0  0  0  0  0  0  0  0  0  0  0  0
   26.1534    2.2435   53.6941 C   0  0  0  0  0  0  0  0  0  0  0  0
   24.9696    2.4671   53.2245 C   0  0  0  0  0  0  0  0  0  0  0  0
   24.5907    3.6675   53.2570 N   0  0  0  0  0  0  0  0  0  0  0  0
   23.4661    3.9615   52.7622 C   0  0  0  0  0  0  0  0  0  0  0  0
   22.7089    3.0960   52.1853 N   0  0  0  0  0  0  0  0  0  0  0  0
   23.0729    1.7371   52.0545 C   0  0  0  0  0  0  0  0  0  0  0  0
   24.2243    1.3685   52.6143 C   0  0  0  0  0  0  0  0  0  0  0  0
   24.8041   -0.0459   52.6545 C   0  0  0  0  0  0  0  0  0  0  0  0
   26.0414   -0.2421   53.1267 C   0  0  0  0  0  0  0  0  0  0  0  0
   26.7964   -1.6814   53.1714 N   0  0  0  0  0  0  0  0  0  0  0  0
   26.3561   -2.6452   52.8127 H   0  0  0  0  0  0  0  0  0  0  0  0
   27.7106   -1.7133   53.5583 H   0  0  0  0  0  0  0  0  0  0  0  0
   28.7298    2.0068   53.6259 C   0  0  0  0  0  0  0  0  0  0  0  0
   27.8839    1.0138   54.0340 N   0  0  0  0  0  0  0  0  0  0  0  0
   28.4223    0.2034   55.2284 C   0  0  0  0  0  0  0  0  0  0  0  0
   22.0194    0.9506   51.2741 N   0  0  0  0  0  0  0  0  0  0  0  0
   22.2555    0.7302   50.2858 H   0  0  0  0  0  0  0  0  0  0  0  0
   20.8001    0.3399   51.8076 C   0  0  0  0  0  0  0  0  0  0  0  0
   20.8849   -0.2395   53.0136 C   0  0  0  0  0  0  0  0  0  0  0  0
   19.7135   -0.8628   53.6316 C   0  0  0  0  0  0  0  0  0  0  0  0
   18.5437   -0.8650   53.0007 C   0  0  0  0  0  0  0  0  0  0  0  0
   18.4112   -0.2326   51.6942 C   0  0  0  0  0  0  0  0  0  0  0  0
   16.7297   -0.2548   50.7751 Br  0  0  0  0  0  0  0  0  0  0  0  0
   19.4616    0.3542   51.1331 C   0  0  0  0  0  0  0  0  0  0  0  0
 14 15  1  0  0  0
 15 16  1  0  0  0
 15  1  1  0  0  0
  1  2  2  0  0  0
  2  3  1  0  0  0
  3  4  2  0  0  0
  4  5  1  0  0  0
  5  6  2  0  0  0
  6  7  1  0  0  0
  7 17  1  0  0  0
 17 19  1  0  0  0
 19 20  2  0  0  0
 20 21  1  0  0  0
 21 22  2  0  0  0
 22 23  1  0  0  0
 23 24  1  0  0  0
 23 25  2  0  0  0
 19 25  1  0  0  0
  7  8  2  0  0  0
  3  8  1  0  0  0
  8  9  1  0  0  0
  9 10  2  0  0  0
  1 10  1  0  0  0
 10 11  1  0  0  0
 17 18  1  0  0  0
 11 12  1  0  0  0
 11 13  1  0  0  0
M  END
> <minimizedAffinity>
-7.54595

$$$$
CHEMBL96627


 23 25  0  0  0  0  0  0  0  0999 V2000
   23.9841   -0.2867   53.4105 C   0  0  0  0  0  0  0  0  0  0  0  0
   24.7328   -0.6081   54.4806 C   0  0  0  0  0  0  0  0  0  0  0  0
   26.0715   -0.0070   54.7177 C   0  0  0  0  0  0  0  0  0  0  0  0
   26.6123    0.8826   53.8904 C   0  0  0  0  0  0  0  0  0  0  0  0
   27.9189    1.4493   54.1506 N   0  0  0  0  0  0  0  0  0  0  0  0
   28.4380    2.3033   53.3556 C   0  0  0  0  0  0  0  0  0  0  0  0
   27.7139    2.7401   52.1381 N   0  0  0  0  0  0  0  0  0  0  0  0
   26.5599    2.3026   51.8199 C   0  0  0  0  0  0  0  0  0  0  0  0
   25.8779    1.2969   52.6991 C   0  0  0  0  0  0  0  0  0  0  0  0
   24.6470    0.8088   52.3901 C   0  0  0  0  0  0  0  0  0  0  0  0
   21.8049   -1.5005   54.5636 C   0  0  0  0  0  0  0  0  0  0  0  0
   22.6746   -1.0679   53.4529 O   0  0  0  0  0  0  0  0  0  0  0  0
   25.9356    2.7850   50.6179 N   0  0  0  0  0  0  0  0  0  0  0  0
   25.2541    2.0916   50.1606 H   0  0  0  0  0  0  0  0  0  0  0  0
   26.1461    4.0706   50.0031 C   0  0  0  0  0  0  0  0  0  0  0  0
   27.1022    4.3455   49.0893 C   0  0  0  0  0  0  0  0  0  0  0  0
   27.2128    5.7444   48.5205 C   0  0  0  0  0  0  0  0  0  0  0  0
   26.3644    6.6722   48.9344 C   0  0  0  0  0  0  0  0  0  0  0  0
   25.3458    6.3604   49.9145 C   0  0  0  0  0  0  0  0  0  0  0  0
   24.1468    7.7288   50.4801 Br  0  0  0  0  0  0  0  0  0  0  0  0
   25.2358    5.1427   50.4216 C   0  0  0  0  0  0  0  0  0  0  0  0
   24.1530    1.3969   51.1493 O   0  0  0  0  0  0  0  0  0  0  0  0
   22.8289    1.5680   50.9039 C   0  0  0  0  0  0  0  0  0  0  0  0
 11 12  1  0  0  0
 12  1  1  0  0  0
  1  2  2  0  0  0
  2  3  1  0  0  0
  3  4  2  0  0  0
  4  5  1  0  0  0
  5  6  2  0  0  0
  6  7  1  0  0  0
  7  8  2  0  0  0
  8 13  1  0  0  0
 13 15  1  0  0  0
 15 16  2  0  0  0
 16 17  1  0  0  0
 17 18  2  0  0  0
 18 19  1  0  0  0
 19 20  1  0  0  0
 19 21  2  0  0  0
 15 21  1  0  0  0
  8  9  1  0  0  0
  4  9  1  0  0  0
  9 10  2  0  0  0
  1 10  1  0  0  0
 10 22  1  0  0  0
 22 23  1  0  0  0
 13 14  1  0  0  0
M  END
> <minimizedAffinity>
-7.50999

$$$$
