
 OpenBabel05092120323D

 34 40  0  0  1  0  0  0  0  0999 V2000
   -1.5500   37.2840   18.4900 C   0  0  1  0  0  0  0  0  0  0  0  0
   -1.1930   36.2410   19.3810 C   0  0  0  0  0  0  0  0  0  0  0  0
   -0.2500   36.4340   20.3780 C   0  0  0  0  0  0  0  0  0  0  0  0
    0.4380   37.6250   20.4010 C   0  0  0  0  0  0  0  0  0  0  0  0
    0.3270   38.5260   19.3950 N   0  0  0  0  0  0  0  0  0  0  0  0
   -0.6320   38.3290   18.4520 C   0  0  0  0  0  0  0  0  0  0  0  0
   -4.5450   40.9630   17.8190 C   0  0  0  0  0  0  0  0  0  0  0  0
   -3.6380   39.7800   17.4680 N   0  0  0  0  0  0  0  0  0  0  0  0
   -3.4950   39.0350   18.9770 C   0  0  0  0  0  0  0  0  0  0  0  0
   -3.8900   37.2400   19.2490 C   0  0  0  0  0  0  0  0  0  0  0  0
   -4.3070   36.7780   20.3080 O   0  0  0  0  0  0  0  0  0  0  0  0
   -3.4210   36.2240   17.9390 N   0  0  0  0  0  0  0  0  0  0  0  0
   -4.0750   36.1400   16.4650 C   0  0  2  0  0  0  0  0  0  0  0  0
   -3.7930   37.6930   15.3980 C   0  0  0  0  0  0  0  0  0  0  0  0
   -4.2590   39.0320   16.3900 C   0  0  1  0  0  0  0  0  0  0  0  0
   -5.3830   38.6140   16.8390 N   0  0  0  0  0  0  0  0  0  0  0  0
   -4.7810   37.5500   17.4140 N   0  0  1  0  0  0  0  0  0  0  0  0
   -5.4190   36.3060   16.9310 C   0  0  0  0  0  0  0  0  0  0  0  0
   -2.8570   37.3290   17.5180 C   0  0  0  0  0  0  0  0  0  0  0  0
    1.2270   38.0580   21.4300 O   0  0  0  0  0  0  0  0  0  0  0  0
    1.5090   37.1990   22.5560 C   0  0  0  0  0  0  0  0  0  0  0  0
    0.8310   37.6980   23.8350 C   0  0  0  0  0  0  0  0  0  0  0  0
   -0.3750   38.4170   23.7660 C   0  0  0  0  0  0  0  0  0  0  0  0
   -0.9470   38.9600   24.9140 C   0  0  0  0  0  0  0  0  0  0  0  0
   -0.3570   38.7590   26.1440 C   0  0  0  0  0  0  0  0  0  0  0  0
    0.8290   37.9850   26.2380 C   0  0  0  0  0  0  0  0  0  0  0  0
    1.4180   37.4560   25.0890 C   0  0  0  0  0  0  0  0  0  0  0  0
    2.6450   36.5950   25.2170 C   0  0  0  0  0  0  0  0  0  0  0  0
    3.5290   36.5890   23.9920 C   0  0  0  0  0  0  0  0  0  0  0  0
    4.8980   36.3080   24.1350 C   0  0  0  0  0  0  0  0  0  0  0  0
    5.7370   36.2860   23.0230 C   0  0  0  0  0  0  0  0  0  0  0  0
    5.2090   36.5020   21.7520 C   0  0  0  0  0  0  0  0  0  0  0  0
    3.8430   36.7560   21.5940 C   0  0  0  0  0  0  0  0  0  0  0  0
    2.9920   36.8360   22.7060 C   0  0  0  0  0  0  0  0  0  0  0  0
  1 19  1  6  0  0  0
  1  2  1  0  0  0  0
  2  3  2  0  0  0  0
  3  4  1  0  0  0  0
  4 20  1  0  0  0  0
  5  4  2  0  0  0  0
  6  1  1  0  0  0  0
  6  5  1  0  0  0  0
  8  7  1  0  0  0  0
  8  9  1  0  0  0  0
  9 10  1  0  0  0  0
 10 11  2  0  0  0  0
 12 10  1  0  0  0  0
 13 18  1  0  0  0  0
 13 17  1  1  0  0  0
 13 12  1  0  0  0  0
 14 13  1  0  0  0  0
 15 14  1  1  0  0  0
 15 16  1  0  0  0  0
 15  8  1  0  0  0  0
 16 17  1  0  0  0  0
 17 18  1  1  0  0  0
 19 12  1  0  0  0  0
 20 21  1  0  0  0  0
 21 34  1  0  0  0  0
 21 22  1  0  0  0  0
 22 27  1  0  0  0  0
 23 22  2  0  0  0  0
 23 24  1  0  0  0  0
 24 25  2  0  0  0  0
 25 26  1  0  0  0  0
 27 28  1  0  0  0  0
 27 26  2  0  0  0  0
 29 30  1  0  0  0  0
 29 28  1  0  0  0  0
 31 30  2  0  0  0  0
 32 31  1  0  0  0  0
 33 32  2  0  0  0  0
 33 34  1  0  0  0  0
 34 29  2  0  0  0  0
M  END
>  <minimizedAffinity>
-9.25524139

$$$$
